<?xml version="1.0" encoding="UTF-8"?>

<!-- generated on 2025-03-21 11:59:13.193714 by osmWebWizard.py v1_22_0+0002-63e50f52594
<configuration>
    <net-file value="C:\Users\Nishita Joshi\Sumo\2025-03-21-11-59-05\osm.net.xml.gz"/>
    <output-trip-file value="C:\Users\Nishita Joshi\Sumo\2025-03-21-11-59-05\osm.motorcycle.trips.xml"/>
    <route-file value="C:\Users\Nishita Joshi\Sumo\2025-03-21-11-59-05\osm.motorcycle.rou.xml"/>
    <prefix value="motorcycle"/>
    <trip-attributes value="departLane=&quot;best&quot;"/>
    <fringe-start-attributes value="departSpeed=&quot;max&quot;"/>
    <vehicle-class value="motorcycle"/>
    <fringe-factor value="5"/>
    <vclass value="motorcycle"/>
    <via-edge-types value="highway.motorway,highway.motorway_link,highway.trunk_link,highway.primary_link,highway.secondary_link,highway.tertiary_link"/>
    <max-distance value="1200.0"/>
    <remove-loops value="True"/>
    <validate value="True"/>
    <insertion-density value="8.0"/>
</configuration>
-->

<!-- generated on 2025-03-21 11:59:13 by Eclipse SUMO duarouter Version 1.22.0
<duarouterConfiguration xmlns:xsi="http://www.w3.org/2001/XMLSchema-instance" xsi:noNamespaceSchemaLocation="http://sumo.dlr.de/xsd/duarouterConfiguration.xsd">

    <input>
        <net-file value="C:\Users\Nishita Joshi\Sumo\2025-03-21-11-59-05\osm.net.xml.gz"/>
        <route-files value="C:\Users\Nishita Joshi\Sumo\2025-03-21-11-59-05\osm.motorcycle.trips.xml"/>
    </input>

    <output>
        <output-file value="C:\Users\Nishita Joshi\Sumo\2025-03-21-11-59-05\osm.motorcycle.trips.xml.tmp"/>
        <alternatives-output value="NUL"/>
        <write-trips value="true"/>
    </output>

    <processing>
        <remove-loops value="true"/>
    </processing>

    <time>
        <begin value="0.0"/>
        <end value="3600.0"/>
    </time>

    <report>
        <no-warnings value="true"/>
        <ignore-errors value="true"/>
        <no-step-log value="true"/>
    </report>

</duarouterConfiguration>
-->

<routes xmlns:xsi="http://www.w3.org/2001/XMLSchema-instance" xsi:noNamespaceSchemaLocation="http://sumo.dlr.de/xsd/routes_file.xsd">
    <vType id="motorcycle_motorcycle" vClass="motorcycle"/>
    <trip id="motorcycle0" type="motorcycle_motorcycle" depart="0.00" departLane="best" from="320687923#0" to="-201743977"/>
    <trip id="motorcycle1" type="motorcycle_motorcycle" depart="9.77" departLane="best" from="840032754#0" to="320691086#1"/>
    <trip id="motorcycle2" type="motorcycle_motorcycle" depart="19.55" departLane="best" from="840032760#6" to="201874373#0"/>
    <trip id="motorcycle3" type="motorcycle_motorcycle" depart="29.32" departLane="best" departSpeed="max" from="840480300" to="-201768892#0"/>
    <trip id="motorcycle4" type="motorcycle_motorcycle" depart="39.09" departLane="best" from="-840829982#0" to="-201768829#0"/>
    <trip id="motorcycle5" type="motorcycle_motorcycle" depart="48.87" departLane="best" from="404099528#11" to="-840829983#0"/>
    <trip id="motorcycle6" type="motorcycle_motorcycle" depart="58.64" departLane="best" from="-201768866#0" to="-320687920#0"/>
    <trip id="motorcycle8" type="motorcycle_motorcycle" depart="78.19" departLane="best" from="-404099528#13" to="201768871#3"/>
    <trip id="motorcycle9" type="motorcycle_motorcycle" depart="87.96" departLane="best" departSpeed="max" from="840424850" to="-1068544748"/>
    <trip id="motorcycle10" type="motorcycle_motorcycle" depart="97.73" departLane="best" from="840424848#1" to="201874391"/>
    <trip id="motorcycle11" type="motorcycle_motorcycle" depart="107.50" departLane="best" from="-840424848#3" to="201874373#1"/>
    <trip id="motorcycle12" type="motorcycle_motorcycle" depart="117.28" departLane="best" from="840491851#3" to="-840424842#0"/>
    <trip id="motorcycle13" type="motorcycle_motorcycle" depart="127.05" departLane="best" from="-201874269#5" to="-201874269#1"/>
    <trip id="motorcycle14" type="motorcycle_motorcycle" depart="136.82" departLane="best" departSpeed="max" from="840447776" to="-201768892#0"/>
    <trip id="motorcycle15" type="motorcycle_motorcycle" depart="146.60" departLane="best" from="840424848#2" to="320687925#1"/>
    <trip id="motorcycle16" type="motorcycle_motorcycle" depart="156.37" departLane="best" from="-201874269#6" to="840829975"/>
    <trip id="motorcycle17" type="motorcycle_motorcycle" depart="166.14" departLane="best" departSpeed="max" from="840424855" to="201874269#2"/>
    <trip id="motorcycle18" type="motorcycle_motorcycle" depart="175.92" departLane="best" from="840447778#2" to="201768870#7"/>
    <trip id="motorcycle19" type="motorcycle_motorcycle" depart="185.69" departLane="best" departSpeed="max" from="840000825#0" to="201768849#3"/>
    <trip id="motorcycle20" type="motorcycle_motorcycle" depart="195.46" departLane="best" from="-201768900#2" to="404099528#13"/>
    <trip id="motorcycle21" type="motorcycle_motorcycle" depart="205.24" departLane="best" departSpeed="max" from="-201874299#2" to="-840032753#4"/>
    <trip id="motorcycle22" type="motorcycle_motorcycle" depart="215.01" departLane="best" departSpeed="max" from="320687922" to="-840424848#3"/>
    <trip id="motorcycle23" type="motorcycle_motorcycle" depart="224.78" departLane="best" departSpeed="max" from="-840447774" to="320687923#2"/>
    <trip id="motorcycle24" type="motorcycle_motorcycle" depart="234.56" departLane="best" from="-840032752" to="840491848#4"/>
    <trip id="motorcycle25" type="motorcycle_motorcycle" depart="244.33" departLane="best" from="320687925#0" to="201768900#1"/>
    <trip id="motorcycle26" type="motorcycle_motorcycle" depart="254.10" departLane="best" departSpeed="max" from="-201874391" to="320687925#1"/>
    <trip id="motorcycle27" type="motorcycle_motorcycle" depart="263.87" departLane="best" departSpeed="max" from="-201874383#1" to="-840424854"/>
    <trip id="motorcycle28" type="motorcycle_motorcycle" depart="273.65" departLane="best" departSpeed="max" from="840884154" to="201874326"/>
    <trip id="motorcycle29" type="motorcycle_motorcycle" depart="283.42" departLane="best" from="201874302#1" to="201874379#2"/>
    <trip id="motorcycle30" type="motorcycle_motorcycle" depart="293.19" departLane="best" departSpeed="max" from="840447775" to="-449153563#0"/>
    <trip id="motorcycle31" type="motorcycle_motorcycle" depart="302.97" departLane="best" from="404099528#2" to="-201768834#0"/>
    <trip id="motorcycle32" type="motorcycle_motorcycle" depart="312.74" departLane="best" from="-840424838#5" to="-840019707#0"/>
    <trip id="motorcycle33" type="motorcycle_motorcycle" depart="322.51" departLane="best" from="-320691086#1" to="840491848#8"/>
    <trip id="motorcycle34" type="motorcycle_motorcycle" depart="332.29" departLane="best" departSpeed="max" from="840447785" to="840424838#0"/>
    <trip id="motorcycle35" type="motorcycle_motorcycle" depart="342.06" departLane="best" from="320691086#1" to="-840447773#3"/>
    <trip id="motorcycle36" type="motorcycle_motorcycle" depart="351.83" departLane="best" departSpeed="max" from="840480304" to="-840480301"/>
    <trip id="motorcycle37" type="motorcycle_motorcycle" depart="361.61" departLane="best" from="-840019707#2" to="404099528#6"/>
    <trip id="motorcycle38" type="motorcycle_motorcycle" depart="371.38" departLane="best" departSpeed="max" from="201874314" to="-725143351#0"/>
    <trip id="motorcycle39" type="motorcycle_motorcycle" depart="381.15" departLane="best" from="-201874373#1" to="840447774"/>
    <trip id="motorcycle40" type="motorcycle_motorcycle" depart="390.93" departLane="best" departSpeed="max" from="-840480318" to="-320689216#0"/>
    <trip id="motorcycle41" type="motorcycle_motorcycle" depart="400.70" departLane="best" from="840887398#0" to="-840876730#0"/>
    <trip id="motorcycle42" type="motorcycle_motorcycle" depart="410.47" departLane="best" from="-201874269#4" to="-201768849#4"/>
    <trip id="motorcycle43" type="motorcycle_motorcycle" depart="420.25" departLane="best" from="840829981#1" to="201874269#9"/>
    <trip id="motorcycle44" type="motorcycle_motorcycle" depart="430.02" departLane="best" from="840424845" to="840447783#0"/>
    <trip id="motorcycle45" type="motorcycle_motorcycle" depart="439.79" departLane="best" departSpeed="max" from="-201768871#6" to="-840424854"/>
    <trip id="motorcycle46" type="motorcycle_motorcycle" depart="449.56" departLane="best" departSpeed="max" from="840884155" to="-840884155"/>
    <trip id="motorcycle47" type="motorcycle_motorcycle" depart="459.34" departLane="best" from="-840829982#0" to="840424846#0"/>
    <trip id="motorcycle48" type="motorcycle_motorcycle" depart="469.11" departLane="best" from="-201768829#1" to="320687924#1"/>
    <trip id="motorcycle49" type="motorcycle_motorcycle" depart="478.88" departLane="best" from="449153563#0" to="201743974#0"/>
    <trip id="motorcycle50" type="motorcycle_motorcycle" depart="488.66" departLane="best" from="-840032752" to="201874329#1"/>
    <trip id="motorcycle51" type="motorcycle_motorcycle" depart="498.43" departLane="best" from="-201874326" to="-840447785"/>
    <trip id="motorcycle53" type="motorcycle_motorcycle" depart="517.98" departLane="best" departSpeed="max" from="840447785" to="-725143351#0"/>
    <trip id="motorcycle54" type="motorcycle_motorcycle" depart="527.75" departLane="best" from="-201768870#5" to="-201874400#0"/>
    <trip id="motorcycle55" type="motorcycle_motorcycle" depart="537.52" departLane="best" departSpeed="max" from="840480304" to="840424848#3"/>
    <trip id="motorcycle56" type="motorcycle_motorcycle" depart="547.30" departLane="best" departSpeed="max" from="201874400#0" to="201874370#0"/>
    <trip id="motorcycle57" type="motorcycle_motorcycle" depart="557.07" departLane="best" from="840424838#4" to="-201743977"/>
    <trip id="motorcycle58" type="motorcycle_motorcycle" depart="566.84" departLane="best" departSpeed="max" from="840424842#0" to="-840887398#0"/>
    <trip id="motorcycle59" type="motorcycle_motorcycle" depart="576.62" departLane="best" from="-1223768698" to="-840424839#0"/>
    <trip id="motorcycle60" type="motorcycle_motorcycle" depart="586.39" departLane="best" from="-201768849#2" to="840480318"/>
    <trip id="motorcycle61" type="motorcycle_motorcycle" depart="596.16" departLane="best" from="840424837" to="-201768866#6"/>
    <trip id="motorcycle62" type="motorcycle_motorcycle" depart="605.93" departLane="best" departSpeed="max" from="840447785" to="840491848#8"/>
    <trip id="motorcycle63" type="motorcycle_motorcycle" depart="615.71" departLane="best" from="-201874269#11" to="-840480307"/>
    <trip id="motorcycle64" type="motorcycle_motorcycle" depart="625.48" departLane="best" from="-201768874#1" to="404099528#2"/>
    <trip id="motorcycle65" type="motorcycle_motorcycle" depart="635.25" departLane="best" from="-840424838#6" to="-201874314"/>
    <trip id="motorcycle66" type="motorcycle_motorcycle" depart="645.03" departLane="best" from="201768849#2" to="201768849#2"/>
    <trip id="motorcycle67" type="motorcycle_motorcycle" depart="654.80" departLane="best" from="-840019707#3" to="840424849"/>
    <trip id="motorcycle68" type="motorcycle_motorcycle" depart="664.57" departLane="best" from="-840829982#1" to="-320687923#4"/>
    <trip id="motorcycle69" type="motorcycle_motorcycle" depart="674.35" departLane="best" from="201874269#8" to="320687925#1"/>
    <trip id="motorcycle70" type="motorcycle_motorcycle" depart="684.12" departLane="best" departSpeed="max" from="-320687925#1" to="840117994"/>
    <trip id="motorcycle71" type="motorcycle_motorcycle" depart="693.89" departLane="best" departSpeed="max" from="840884155" to="201874352"/>
    <trip id="motorcycle72" type="motorcycle_motorcycle" depart="703.67" departLane="best" from="-840887398#1" to="-840884154"/>
    <trip id="motorcycle73" type="motorcycle_motorcycle" depart="713.44" departLane="best" departSpeed="max" from="-201874352" to="201768900#1"/>
    <trip id="motorcycle74" type="motorcycle_motorcycle" depart="723.21" departLane="best" from="-840424848#1" to="201768871#3"/>
    <trip id="motorcycle75" type="motorcycle_motorcycle" depart="732.99" departLane="best" departSpeed="max" from="-404099528#20" to="-320689216#1"/>
    <trip id="motorcycle76" type="motorcycle_motorcycle" depart="742.76" departLane="best" from="-201768885#2" to="201874299#2"/>
    <trip id="motorcycle77" type="motorcycle_motorcycle" depart="752.53" departLane="best" from="840447778#1" to="201768870#7"/>
    <trip id="motorcycle78" type="motorcycle_motorcycle" depart="762.31" departLane="best" from="404099528#4" to="201874369#3"/>
    <trip id="motorcycle79" type="motorcycle_motorcycle" depart="772.08" departLane="best" from="-371351624" to="-201874314"/>
    <trip id="motorcycle80" type="motorcycle_motorcycle" depart="781.85" departLane="best" departSpeed="max" from="840480308" to="-201768870#2"/>
    <trip id="motorcycle81" type="motorcycle_motorcycle" depart="791.62" departLane="best" from="840424848#3" to="-201874409"/>
    <trip id="motorcycle82" type="motorcycle_motorcycle" depart="801.40" departLane="best" from="201874269#8" to="-840447784#0"/>
    <trip id="motorcycle83" type="motorcycle_motorcycle" depart="811.17" departLane="best" from="-840829982#1" to="-840480304"/>
    <trip id="motorcycle84" type="motorcycle_motorcycle" depart="820.94" departLane="best" departSpeed="max" from="840876731" to="-201874269#12"/>
    <trip id="motorcycle85" type="motorcycle_motorcycle" depart="830.72" departLane="best" departSpeed="max" from="-840829972#2" to="-840424842#2"/>
    <trip id="motorcycle86" type="motorcycle_motorcycle" depart="840.49" departLane="best" from="840447778#2" to="-404099528#8"/>
    <trip id="motorcycle87" type="motorcycle_motorcycle" depart="850.26" departLane="best" from="-320687923#1" to="-840480300"/>
    <trip id="motorcycle88" type="motorcycle_motorcycle" depart="860.04" departLane="best" from="-840829982#0" to="-840032753#4"/>
    <trip id="motorcycle89" type="motorcycle_motorcycle" depart="869.81" departLane="best" from="-641227481#1" to="840480305"/>
    <trip id="motorcycle90" type="motorcycle_motorcycle" depart="879.58" departLane="best" departSpeed="max" from="1068544747" to="840424846#0"/>
    <trip id="motorcycle91" type="motorcycle_motorcycle" depart="889.36" departLane="best" departSpeed="max" from="201874302#0" to="-201768865"/>
    <trip id="motorcycle92" type="motorcycle_motorcycle" depart="899.13" departLane="best" from="-840887398#1" to="840419589#1"/>
    <trip id="motorcycle93" type="motorcycle_motorcycle" depart="908.90" departLane="best" from="840829981#1" to="840480318"/>
    <trip id="motorcycle94" type="motorcycle_motorcycle" depart="918.68" departLane="best" departSpeed="max" from="840447776" to="-201874383#0"/>
    <trip id="motorcycle95" type="motorcycle_motorcycle" depart="928.45" departLane="best" from="201768866#2" to="-201874411#0"/>
    <trip id="motorcycle96" type="motorcycle_motorcycle" depart="938.22" departLane="best" from="840829972#0" to="-201768866#7"/>
    <trip id="motorcycle97" type="motorcycle_motorcycle" depart="947.99" departLane="best" departSpeed="max" from="-840447777#1" to="840829982#2"/>
    <trip id="motorcycle98" type="motorcycle_motorcycle" depart="957.77" departLane="best" from="840491851#3" to="840876730#0"/>
    <trip id="motorcycle99" type="motorcycle_motorcycle" depart="967.54" departLane="best" departSpeed="max" from="201874302#0" to="320687923#3"/>
    <trip id="motorcycle100" type="motorcycle_motorcycle" depart="977.31" departLane="best" from="201874379#0" to="-840032760#2"/>
    <trip id="motorcycle101" type="motorcycle_motorcycle" depart="987.09" departLane="best" from="840829981#0" to="201768870#8"/>
    <trip id="motorcycle102" type="motorcycle_motorcycle" depart="996.86" departLane="best" from="-201874279" to="-404099528#10"/>
    <trip id="motorcycle103" type="motorcycle_motorcycle" depart="1006.63" departLane="best" from="-201768871#2" to="201768870#9"/>
    <trip id="motorcycle104" type="motorcycle_motorcycle" depart="1016.41" departLane="best" from="201768870#7" to="-840424840#2"/>
    <trip id="motorcycle105" type="motorcycle_motorcycle" depart="1026.18" departLane="best" from="201874379#3" to="-840829972#0"/>
    <trip id="motorcycle106" type="motorcycle_motorcycle" depart="1035.95" departLane="best" from="-201768900#2" to="-201874404#0"/>
    <trip id="motorcycle107" type="motorcycle_motorcycle" depart="1045.73" departLane="best" departSpeed="max" from="201874383#0" to="201874370#0"/>
    <trip id="motorcycle108" type="motorcycle_motorcycle" depart="1055.50" departLane="best" departSpeed="max" from="-404099528#20" to="-201874302#0"/>
    <trip id="motorcycle109" type="motorcycle_motorcycle" depart="1065.27" departLane="best" from="840447807#0" to="404099528#5"/>
    <trip id="motorcycle110" type="motorcycle_motorcycle" depart="1075.05" departLane="best" from="201874382" to="201874269#2"/>
    <trip id="motorcycle111" type="motorcycle_motorcycle" depart="1084.82" departLane="best" from="-840829980" to="201768870#9"/>
    <trip id="motorcycle112" type="motorcycle_motorcycle" depart="1094.59" departLane="best" from="-840032753#5" to="840491848#2"/>
    <trip id="motorcycle113" type="motorcycle_motorcycle" depart="1104.36" departLane="best" departSpeed="max" from="-320687925#1" to="320687923#1"/>
    <trip id="motorcycle114" type="motorcycle_motorcycle" depart="1114.14" departLane="best" from="404099528#4" to="-840447773#3"/>
    <trip id="motorcycle115" type="motorcycle_motorcycle" depart="1123.91" departLane="best" from="-840424838#6" to="404099528#13"/>
    <trip id="motorcycle116" type="motorcycle_motorcycle" depart="1133.68" departLane="best" from="-201768887" to="-840480301"/>
    <trip id="motorcycle117" type="motorcycle_motorcycle" depart="1143.46" departLane="best" from="840887398#0" to="840876730#0"/>
    <trip id="motorcycle118" type="motorcycle_motorcycle" depart="1153.23" departLane="best" from="-201768887" to="-201874411#0"/>
    <trip id="motorcycle119" type="motorcycle_motorcycle" depart="1163.00" departLane="best" from="-840019707#3" to="840491848#1"/>
    <trip id="motorcycle120" type="motorcycle_motorcycle" depart="1172.78" departLane="best" departSpeed="max" from="840447785" to="840424851"/>
    <trip id="motorcycle121" type="motorcycle_motorcycle" depart="1182.55" departLane="best" departSpeed="max" from="-840447774" to="-201874373#2"/>
    <trip id="motorcycle122" type="motorcycle_motorcycle" depart="1192.32" departLane="best" from="-840424856" to="-201874404#1"/>
    <trip id="motorcycle123" type="motorcycle_motorcycle" depart="1202.10" departLane="best" departSpeed="max" from="201874400#0" to="840829982#2"/>
    <trip id="motorcycle124" type="motorcycle_motorcycle" depart="1211.87" departLane="best" from="320691086#0" to="-1068544748"/>
    <trip id="motorcycle125" type="motorcycle_motorcycle" depart="1221.64" departLane="best" departSpeed="max" from="840424853" to="-840032760#5"/>
    <trip id="motorcycle126" type="motorcycle_motorcycle" depart="1231.42" departLane="best" from="-404099528#12" to="840491848#5"/>
    <trip id="motorcycle127" type="motorcycle_motorcycle" depart="1241.19" departLane="best" from="-201874365#0" to="-201874299#0"/>
    <trip id="motorcycle128" type="motorcycle_motorcycle" depart="1250.96" departLane="best" from="-201874302#1" to="201768849#4"/>
    <trip id="motorcycle129" type="motorcycle_motorcycle" depart="1260.74" departLane="best" from="-840032753#4" to="-201768892#1"/>
    <trip id="motorcycle130" type="motorcycle_motorcycle" depart="1270.51" departLane="best" from="840032753#5" to="-320687922"/>
    <trip id="motorcycle131" type="motorcycle_motorcycle" depart="1280.28" departLane="best" departSpeed="max" from="320687922" to="-725143351#2"/>
    <trip id="motorcycle132" type="motorcycle_motorcycle" depart="1290.05" departLane="best" from="201768866#5" to="840447777#1"/>
    <trip id="motorcycle133" type="motorcycle_motorcycle" depart="1299.83" departLane="best" departSpeed="max" from="840447776" to="840032753#5"/>
    <trip id="motorcycle134" type="motorcycle_motorcycle" depart="1309.60" departLane="best" from="-840829982#1" to="-840032753#3"/>
    <trip id="motorcycle136" type="motorcycle_motorcycle" depart="1329.15" departLane="best" departSpeed="max" from="320687922" to="-725143351#0"/>
    <trip id="motorcycle138" type="motorcycle_motorcycle" depart="1348.69" departLane="best" departSpeed="max" from="-840829982#2" to="-1068544748"/>
    <trip id="motorcycle139" type="motorcycle_motorcycle" depart="1358.47" departLane="best" from="201768892#1" to="840424852"/>
    <trip id="motorcycle140" type="motorcycle_motorcycle" depart="1368.24" departLane="best" departSpeed="max" from="840480301" to="-201768834#1"/>
    <trip id="motorcycle141" type="motorcycle_motorcycle" depart="1378.01" departLane="best" from="840447773#0" to="201768870#9"/>
    <trip id="motorcycle142" type="motorcycle_motorcycle" depart="1387.79" departLane="best" from="-201874373#0" to="-201874302#2"/>
    <trip id="motorcycle143" type="motorcycle_motorcycle" depart="1397.56" departLane="best" from="-840424837" to="840447774"/>
    <trip id="motorcycle144" type="motorcycle_motorcycle" depart="1407.33" departLane="best" departSpeed="max" from="840424847#0" to="840424846#0"/>
    <trip id="motorcycle145" type="motorcycle_motorcycle" depart="1417.11" departLane="best" departSpeed="max" from="840480301" to="320687923#2"/>
    <trip id="motorcycle146" type="motorcycle_motorcycle" depart="1426.88" departLane="best" from="-641227481#1" to="-201874269#3"/>
    <trip id="motorcycle147" type="motorcycle_motorcycle" depart="1436.65" departLane="best" from="840424842#1" to="840424852"/>
    <trip id="motorcycle148" type="motorcycle_motorcycle" depart="1446.42" departLane="best" departSpeed="max" from="-840829972#2" to="201874269#4"/>
    <trip id="motorcycle149" type="motorcycle_motorcycle" depart="1456.20" departLane="best" from="201874379#0" to="840480318"/>
    <trip id="motorcycle150" type="motorcycle_motorcycle" depart="1465.97" departLane="best" from="840447783#0" to="-840829977#1"/>
    <trip id="motorcycle151" type="motorcycle_motorcycle" depart="1475.74" departLane="best" departSpeed="max" from="840424850" to="840424851"/>
    <trip id="motorcycle152" type="motorcycle_motorcycle" depart="1485.52" departLane="best" from="-201768860" to="320687926#3"/>
    <trip id="motorcycle153" type="motorcycle_motorcycle" depart="1495.29" departLane="best" from="-840424846#1" to="840480318"/>
    <trip id="motorcycle154" type="motorcycle_motorcycle" depart="1505.06" departLane="best" departSpeed="max" from="840424847#0" to="840424846#2"/>
    <trip id="motorcycle155" type="motorcycle_motorcycle" depart="1514.84" departLane="best" departSpeed="max" from="840424850" to="-725143351#5"/>
    <trip id="motorcycle156" type="motorcycle_motorcycle" depart="1524.61" departLane="best" departSpeed="max" from="840424843#0" to="201874269#7"/>
    <trip id="motorcycle157" type="motorcycle_motorcycle" depart="1534.38" departLane="best" departSpeed="max" from="840447784#0" to="840424844"/>
    <trip id="motorcycle158" type="motorcycle_motorcycle" depart="1544.16" departLane="best" from="-404099528#14" to="840032760#0"/>
    <trip id="motorcycle159" type="motorcycle_motorcycle" depart="1553.93" departLane="best" from="201743987#1" to="-840101695#0"/>
    <trip id="motorcycle160" type="motorcycle_motorcycle" depart="1563.70" departLane="best" from="840424846#2" to="-371351624"/>
    <trip id="motorcycle161" type="motorcycle_motorcycle" depart="1573.48" departLane="best" from="-201768860" to="-201874411#1"/>
    <trip id="motorcycle162" type="motorcycle_motorcycle" depart="1583.25" departLane="best" from="-840424843#1" to="840424846#2"/>
    <trip id="motorcycle163" type="motorcycle_motorcycle" depart="1593.02" departLane="best" from="840829980" to="201768900#2"/>
    <trip id="motorcycle164" type="motorcycle_motorcycle" depart="1602.80" departLane="best" from="-320687923#1" to="-840447775"/>
    <trip id="motorcycle165" type="motorcycle_motorcycle" depart="1612.57" departLane="best" departSpeed="max" from="840876731" to="201743974#0"/>
    <trip id="motorcycle166" type="motorcycle_motorcycle" depart="1622.34" departLane="best" from="840829982#0" to="-201874400#0"/>
    <trip id="motorcycle167" type="motorcycle_motorcycle" depart="1632.11" departLane="best" from="840829977#0" to="-725143351#3"/>
    <trip id="motorcycle168" type="motorcycle_motorcycle" depart="1641.89" departLane="best" from="201874302#2" to="-840447785"/>
    <trip id="motorcycle169" type="motorcycle_motorcycle" depart="1651.66" departLane="best" from="840032759" to="840424837"/>
    <trip id="motorcycle170" type="motorcycle_motorcycle" depart="1661.43" departLane="best" departSpeed="max" from="201874393" to="-840876731"/>
    <trip id="motorcycle171" type="motorcycle_motorcycle" depart="1671.21" departLane="best" from="-840447783#0" to="201768870#6"/>
    <trip id="motorcycle172" type="motorcycle_motorcycle" depart="1680.98" departLane="best" departSpeed="max" from="-641227481#4" to="201874411#1"/>
    <trip id="motorcycle174" type="motorcycle_motorcycle" depart="1700.53" departLane="best" from="-201874269#7" to="320687923#4"/>
    <trip id="motorcycle175" type="motorcycle_motorcycle" depart="1710.30" departLane="best" from="-840447773#2" to="201768870#7"/>
    <trip id="motorcycle176" type="motorcycle_motorcycle" depart="1720.07" departLane="best" from="-404099528#13" to="-840424841"/>
    <trip id="motorcycle177" type="motorcycle_motorcycle" depart="1729.85" departLane="best" from="-840424838#4" to="840424839#0"/>
    <trip id="motorcycle178" type="motorcycle_motorcycle" depart="1739.62" departLane="best" from="-840032754#0" to="-840032760#6"/>
    <trip id="motorcycle179" type="motorcycle_motorcycle" depart="1749.39" departLane="best" from="-840424838#0" to="-840447776"/>
    <trip id="motorcycle180" type="motorcycle_motorcycle" depart="1759.17" departLane="best" departSpeed="max" from="-201874364" to="840447778#5"/>
    <trip id="motorcycle181" type="motorcycle_motorcycle" depart="1768.94" departLane="best" departSpeed="max" from="840480301" to="201874269#11"/>
    <trip id="motorcycle183" type="motorcycle_motorcycle" depart="1788.48" departLane="best" departSpeed="max" from="-840829982#2" to="201768870#9"/>
    <trip id="motorcycle184" type="motorcycle_motorcycle" depart="1798.26" departLane="best" from="320691086#1" to="-840480303"/>
    <trip id="motorcycle185" type="motorcycle_motorcycle" depart="1808.03" departLane="best" departSpeed="max" from="1068544747" to="-320687924#0"/>
    <trip id="motorcycle186" type="motorcycle_motorcycle" depart="1817.80" departLane="best" from="201768849#0" to="840447774"/>
    <trip id="motorcycle187" type="motorcycle_motorcycle" depart="1827.58" departLane="best" departSpeed="max" from="840424847#0" to="-201874383#0"/>
    <trip id="motorcycle188" type="motorcycle_motorcycle" depart="1837.35" departLane="best" from="-201874269#11" to="-840876731"/>
    <trip id="motorcycle189" type="motorcycle_motorcycle" depart="1847.12" departLane="best" from="320687920#1" to="-840424842#0"/>
    <trip id="motorcycle190" type="motorcycle_motorcycle" depart="1856.90" departLane="best" departSpeed="max" from="840424853" to="404099528#12"/>
    <trip id="motorcycle191" type="motorcycle_motorcycle" depart="1866.67" departLane="best" from="-404099528#19" to="201768900#1"/>
    <trip id="motorcycle192" type="motorcycle_motorcycle" depart="1876.44" departLane="best" departSpeed="max" from="-320687925#1" to="201743974#0"/>
    <trip id="motorcycle193" type="motorcycle_motorcycle" depart="1886.22" departLane="best" from="449153563#0" to="-840480306"/>
    <trip id="motorcycle194" type="motorcycle_motorcycle" depart="1895.99" departLane="best" departSpeed="max" from="840447776" to="-201768871#0"/>
    <trip id="motorcycle195" type="motorcycle_motorcycle" depart="1905.76" departLane="best" from="-840829977#0" to="-201874299#1"/>
    <trip id="motorcycle196" type="motorcycle_motorcycle" depart="1915.54" departLane="best" from="-320687924#0" to="201874391"/>
    <trip id="motorcycle197" type="motorcycle_motorcycle" depart="1925.31" departLane="best" from="-201768870#0" to="-404099528#4"/>
    <trip id="motorcycle198" type="motorcycle_motorcycle" depart="1935.08" departLane="best" from="320691777" to="-1068544747"/>
    <trip id="motorcycle200" type="motorcycle_motorcycle" depart="1954.63" departLane="best" departSpeed="max" from="-201874299#2" to="-840447783#2"/>
    <trip id="motorcycle201" type="motorcycle_motorcycle" depart="1964.40" departLane="best" from="201768892#1" to="-201768865"/>
    <trip id="motorcycle202" type="motorcycle_motorcycle" depart="1974.17" departLane="best" from="-641227481#1" to="-840424839#1"/>
    <trip id="motorcycle204" type="motorcycle_motorcycle" depart="1993.72" departLane="best" from="404099528#15" to="840829982#2"/>
    <trip id="motorcycle205" type="motorcycle_motorcycle" depart="2003.49" departLane="best" departSpeed="max" from="201874383#0" to="840491851#2"/>
    <trip id="motorcycle206" type="motorcycle_motorcycle" depart="2013.27" departLane="best" from="840447807#2" to="201768900#4"/>
    <trip id="motorcycle207" type="motorcycle_motorcycle" depart="2023.04" departLane="best" from="840032754#0" to="840829982#1"/>
    <trip id="motorcycle208" type="motorcycle_motorcycle" depart="2032.81" departLane="best" departSpeed="max" from="840424855" to="201768849#0"/>
    <trip id="motorcycle209" type="motorcycle_motorcycle" depart="2042.59" departLane="best" departSpeed="max" from="840480300" to="320691777"/>