<?xml version="1.0" encoding="UTF-8"?>

<!-- generated on 2025-03-21 11:59:14.398045 by osmWebWizard.py v1_22_0+0002-63e50f52594
<configuration>
    <net-file value="C:\Users\Nishita Joshi\Sumo\2025-03-21-11-59-05\osm.net.xml.gz"/>
    <output-trip-file value="C:\Users\Nishita Joshi\Sumo\2025-03-21-11-59-05\osm.pedestrian.trips.xml"/>
    <route-file value="C:\Users\Nishita Joshi\Sumo\2025-03-21-11-59-05\osm.pedestrian.rou.xml"/>
    <pedestrians value="True"/>
    <prefix value="ped"/>
    <vehicle-class value="pedestrian"/>
    <fringe-factor value="1"/>
    <max-distance value="2000.0"/>
    <insertion-density value="14.4"/>
</configuration>
-->

<routes xmlns:xsi="http://www.w3.org/2001/XMLSchema-instance" xsi:noNamespaceSchemaLocation="http://sumo.dlr.de/xsd/routes_file.xsd">
    <vType id="ped_pedestrian" vClass="pedestrian"/>
    <person id="ped0" depart="0.00" type="ped_pedestrian">
        <walk from="371351627" to="-201743993#0"/>
    </person>
    <person id="ped1" depart="29.28" type="ped_pedestrian">
        <walk from="-840000821#1" to="-201874368"/>
    </person>
    <person id="ped2" depart="58.55" type="ped_pedestrian">
        <walk from="840491848#2" to="840000821#1"/>
    </person>
    <person id="ped3" depart="87.83" type="ped_pedestrian">
        <walk from="840491851#3" to="-201768859#0"/>
    </person>
    <person id="ped4" depart="117.11" type="ped_pedestrian">
        <walk from="201768813#1" to="-201743993#0"/>
    </person>
    <person id="ped5" depart="146.38" type="ped_pedestrian">
        <walk from="-201874368" to="201768875#0"/>
    </person>
    <person id="ped6" depart="175.66" type="ped_pedestrian">
        <walk from="-201743993#0" to="-201768879#2"/>
    </person>
    <person id="ped7" depart="204.94" type="ped_pedestrian">
        <walk from="840000821#0" to="201768879#0"/>
    </person>
    <person id="ped8" depart="234.21" type="ped_pedestrian">
        <walk from="-201874368" to="201874368"/>
    </person>
    <person id="ped9" depart="263.49" type="ped_pedestrian">
        <walk from="840491848#7" to="-201743982"/>
    </person>
    <person id="ped10" depart="292.77" type="ped_pedestrian">
        <walk from="840491848#6" to="840491848#0"/>
    </person>
    <person id="ped11" depart="322.04" type="ped_pedestrian">
        <walk from="-840848446" to="-201768875#1"/>
    </person>
    <person id="ped12" depart="351.32" type="ped_pedestrian">
        <walk from="840848444#0" to="-840848445"/>
    </person>
    <person id="ped13" depart="380.60" type="ped_pedestrian">
        <walk from="-201768859#0" to="-201768859#0"/>
    </person>
    <person id="ped14" depart="409.87" type="ped_pedestrian">
        <walk from="840491851#0" to="201879898"/>
    </person>
    <person id="ped15" depart="439.15" type="ped_pedestrian">
        <walk from="840491848#7" to="840491848#2"/>
    </person>
    <person id="ped16" depart="468.43" type="ped_pedestrian">
        <walk from="201768879#0" to="840848444#1"/>
    </person>
    <person id="ped17" depart="497.70" type="ped_pedestrian">
        <walk from="201743993#0" to="201768879#1"/>
    </person>
    <person id="ped18" depart="526.98" type="ped_pedestrian">
        <walk from="840491848#8" to="371351623"/>
    </person>
    <person id="ped19" depart="556.26" type="ped_pedestrian">
        <walk from="840491851#1" to="201768879#2"/>
    </person>
    <person id="ped20" depart="585.53" type="ped_pedestrian">
        <walk from="840491848#0" to="-201743993#1"/>
    </person>
    <person id="ped21" depart="614.81" type="ped_pedestrian">
        <walk from="-201879898" to="-840000821#1"/>
    </person>
    <person id="ped22" depart="644.09" type="ped_pedestrian">
        <walk from="-201768844" to="-201879898"/>
    </person>
    <person id="ped23" depart="673.36" type="ped_pedestrian">
        <walk from="-201768859#1" to="-840000821#1"/>
    </person>
    <person id="ped24" depart="702.64" type="ped_pedestrian">
        <walk from="371351627" to="201743982"/>
    </person>
    <person id="ped25" depart="731.92" type="ped_pedestrian">
        <walk from="201743982" to="-201768879#2"/>
    </person>
    <person id="ped26" depart="761.19" type="ped_pedestrian">
        <walk from="-840000821#0" to="840491851#6"/>
    </person>
    <person id="ped27" depart="790.47" type="ped_pedestrian">
        <walk from="840000821#0" to="201879898"/>
    </person>
    <person id="ped28" depart="819.75" type="ped_pedestrian">
        <walk from="-201768879#0" to="840491848#2"/>
    </person>
    <person id="ped29" depart="849.02" type="ped_pedestrian">
        <walk from="-201768879#0" to="201743993#0"/>
    </person>
    <person id="ped30" depart="878.30" type="ped_pedestrian">
        <walk from="840848446" to="371351627"/>
    </person>
    <person id="ped31" depart="907.58" type="ped_pedestrian">
        <walk from="201768879#1" to="840000822"/>
    </person>
    <person id="ped32" depart="936.85" type="ped_pedestrian">
        <walk from="840491851#0" to="840491848#5"/>
    </person>
    <person id="ped33" depart="966.13" type="ped_pedestrian">
        <walk from="-201879898" to="-201743993#0"/>
    </person>
    <person id="ped34" depart="995.41" type="ped_pedestrian">
        <walk from="-840848444#0" to="-840000821#0"/>
    </person>
    <person id="ped35" depart="1024.68" type="ped_pedestrian">
        <walk from="-201874368" to="840491851#6"/>
    </person>
    <person id="ped36" depart="1053.96" type="ped_pedestrian">
        <walk from="840491851#2" to="-840848444#0"/>
    </person>
    <person id="ped37" depart="1083.24" type="ped_pedestrian">
        <walk from="840000821#0" to="201743993#1"/>
    </person>
    <person id="ped38" depart="1112.51" type="ped_pedestrian">
        <walk from="840491851#4" to="201768859#0"/>
    </person>
    <person id="ped39" depart="1141.79" type="ped_pedestrian">
        <walk from="-840000821#0" to="-371351623"/>
    </person>
    <person id="ped40" depart="1171.07" type="ped_pedestrian">
        <walk from="201768879#1" to="-840000821#0"/>
    </person>
    <person id="ped41" depart="1200.34" type="ped_pedestrian">
        <walk from="201874368" to="840491851#3"/>
    </person>
    <person id="ped42" depart="1229.62" type="ped_pedestrian">
        <walk from="201743993#1" to="-201874368"/>
    </person>
    <person id="ped43" depart="1258.90" type="ped_pedestrian">
        <walk from="840848446" to="201768875#0"/>
    </person>
    <person id="ped44" depart="1288.17" type="ped_pedestrian">
        <walk from="-201768859#0" to="-201743993#1"/>
    </person>
    <person id="ped45" depart="1317.45" type="ped_pedestrian">
        <walk from="-201768859#1" to="371351623"/>
    </person>
    <person id="ped46" depart="1346.73" type="ped_pedestrian">
        <walk from="840491848#6" to="201768813#1"/>
    </person>
    <person id="ped47" depart="1376.00" type="ped_pedestrian">
        <walk from="-201768813#0" to="201743993#0"/>
    </person>
    <person id="ped48" depart="1405.28" type="ped_pedestrian">
        <walk from="840848446" to="201768875#1"/>
    </person>
    <person id="ped49" depart="1434.56" type="ped_pedestrian">
        <walk from="840848444#1" to="840491851#1"/>
    </person>
    <person id="ped50" depart="1463.83" type="ped_pedestrian">
        <walk from="-201743982" to="840491848#1"/>
    </person>
    <person id="ped51" depart="1493.11" type="ped_pedestrian">
        <walk from="840000822" to="201768879#0"/>
    </person>
    <person id="ped52" depart="1522.39" type="ped_pedestrian">
        <walk from="-840000821#0" to="371351627"/>
    </person>
    <person id="ped53" depart="1551.66" type="ped_pedestrian">
        <walk from="-201768859#1" to="201768813#1"/>
    </person>
    <person id="ped54" depart="1580.94" type="ped_pedestrian">
        <walk from="201768859#0" to="840848444#0"/>
    </person>
    <person id="ped55" depart="1610.22" type="ped_pedestrian">
        <walk from="840491851#2" to="-840000821#0"/>
    </person>
    <person id="ped56" depart="1639.49" type="ped_pedestrian">
        <walk from="201768875#0" to="-201768879#1"/>
    </person>
    <person id="ped57" depart="1668.77" type="ped_pedestrian">
        <walk from="840491851#4" to="840491851#1"/>
    </person>
    <person id="ped58" depart="1698.05" type="ped_pedestrian">
        <walk from="-840000822" to="371351627"/>
    </person>
    <person id="ped59" depart="1727.32" type="ped_pedestrian">
        <walk from="201879898" to="-201768875#1"/>
    </person>
    <person id="ped60" depart="1756.60" type="ped_pedestrian">
        <walk from="840491848#4" to="201768879#0"/>
    </person>
    <person id="ped61" depart="1785.88" type="ped_pedestrian">
        <walk from="840491848#5" to="201768875#1"/>
    </person>
    <person id="ped62" depart="1815.15" type="ped_pedestrian">
        <walk from="-201743982" to="-840848445"/>
    </person>
    <person id="ped63" depart="1844.43" type="ped_pedestrian">
        <walk from="-201743993#0" to="840491851#5"/>
    </person>
    <person id="ped64" depart="1873.71" type="ped_pedestrian">
        <walk from="840491851#2" to="840491848#8"/>
    </person>
    <person id="ped65" depart="1902.98" type="ped_pedestrian">
        <walk from="-840848444#0" to="-201768813#0"/>
    </person>
    <person id="ped66" depart="1932.26" type="ped_pedestrian">
        <walk from="840491851#2" to="840491851#6"/>
    </person>
    <person id="ped67" depart="1961.54" type="ped_pedestrian">
        <walk from="-201768859#0" to="201768869"/>
    </person>
    <person id="ped68" depart="1990.81" type="ped_pedestrian">
        <walk from="-201768844" to="840491848#4"/>
    </person>
    <person id="ped69" depart="2020.09" type="ped_pedestrian">
        <walk from="840491848#4" to="-201768869"/>
    </person>
    <person id="ped70" depart="2049.37" type="ped_pedestrian">
        <walk from="201768859#1" to="201768879#1"/>
    </person>
    <person id="ped71" depart="2078.64" type="ped_pedestrian">
        <walk from="-840000821#0" to="840491851#2"/>
    </person>
    <person id="ped72" depart="2107.92" type="ped_pedestrian">
        <walk from="201768813#1" to="-201874368"/>
    </person>
    <person id="ped73" depart="2137.20" type="ped_pedestrian">
        <walk from="201768879#0" to="840491848#2"/>
    </person>
    <person id="ped74" depart="2166.47" type="ped_pedestrian">
        <walk from="-201768879#2" to="-840848444#0"/>
    </person>
    <person id="ped75" depart="2195.75" type="ped_pedestrian">
        <walk from="840848446" to="840000821#0"/>
    </person>
    <person id="ped76" depart="2225.03" type="ped_pedestrian">
        <walk from="201768844" to="201768875#1"/>
    </person>
    <person id="ped77" depart="2254.30" type="ped_pedestrian">
        <walk from="-201768869" to="-201874368"/>
    </person>
    <person id="ped78" depart="2283.58" type="ped_pedestrian">
        <walk from="-840848445" to="201874368"/>
    </person>
    <person id="ped79" depart="2312.86" type="ped_pedestrian">
        <walk from="-201879898" to="-201874368"/>
    </person>
    <person id="ped80" depart="2342.13" type="ped_pedestrian">
        <walk from="-201768844" to="371351627"/>
    </person>
    <person id="ped81" depart="2371.41" type="ped_pedestrian">
        <walk from="-201879898" to="840491851#4"/>
    </person>
    <person id="ped82" depart="2400.69" type="ped_pedestrian">
        <walk from="840491851#1" to="-201768844"/>
    </person>
    <person id="ped83" depart="2429.96" type="ped_pedestrian">
        <walk from="-201879898" to="840000821#1"/>
    </person>
    <person id="ped84" depart="2459.24" type="ped_pedestrian">
        <walk from="-201874368" to="-201768875#0"/>
    </person>
    <person id="ped85" depart="2488.52" type="ped_pedestrian">
        <walk from="840491851#6" to="201768879#2"/>
    </person>
    <person id="ped86" depart="2517.79" type="ped_pedestrian">
        <walk from="201768859#1" to="840491848#5"/>
    </person>
    <person id="ped87" depart="2547.07" type="ped_pedestrian">
        <walk from="840491848#7" to="-201768879#1"/>
    </person>
    <person id="ped88" depart="2576.35" type="ped_pedestrian">
        <walk from="-201768859#1" to="201768813#1"/>
    </person>
    <person id="ped89" depart="2605.62" type="ped_pedestrian">
        <walk from="201768813#1" to="201768859#0"/>
    </person>
    <person id="ped90" depart="2634.90" type="ped_pedestrian">
        <walk from="840491848#2" to="840000821#1"/>
    </person>
    <person id="ped91" depart="2664.18" type="ped_pedestrian">
        <walk from="840848446" to="-201768859#1"/>
    </person>
    <person id="ped92" depart="2693.45" type="ped_pedestrian">
        <walk from="201743993#1" to="-840848446"/>
    </person>
    <person id="ped93" depart="2722.73" type="ped_pedestrian">
        <walk from="840491851#1" to="-371351623"/>
    </person>
    <person id="ped94" depart="2752.01" type="ped_pedestrian">
        <walk from="-201768879#1" to="201768844"/>
    </person>
    <person id="ped95" depart="2781.28" type="ped_pedestrian">
        <walk from="201768813#1" to="-840000821#1"/>
    </person>
    <person id="ped96" depart="2810.56" type="ped_pedestrian">
        <walk from="-371351623" to="840491851#5"/>
    </person>
    <person id="ped97" depart="2839.84" type="ped_pedestrian">
        <walk from="201768844" to="840491851#1"/>
    </person>
    <person id="ped98" depart="2869.11" type="ped_pedestrian">
        <walk from="201768879#1" to="-201768813#0"/>
    </person>
    <person id="ped99" depart="2898.39" type="ped_pedestrian">
        <walk from="840848446" to="840491848#8"/>
    </person>
    <person id="ped100" depart="2927.67" type="ped_pedestrian">
        <walk from="840848444#1" to="840491851#5"/>
    </person>
    <person id="ped101" depart="2956.94" type="ped_pedestrian">
        <walk from="840491851#0" to="-201768879#0"/>
    </person>
    <person id="ped102" depart="2986.22" type="ped_pedestrian">
        <walk from="201768869" to="-201874368"/>
    </person>
    <person id="ped103" depart="3015.50" type="ped_pedestrian">
        <walk from="201743993#1" to="-201768813#0"/>
    </person>
    <person id="ped104" depart="3044.77" type="ped_pedestrian">
        <walk from="201743993#0" to="840848446"/>
    </person>
    <person id="ped105" depart="3074.05" type="ped_pedestrian">
        <walk from="-840000821#0" to="840491848#5"/>
    </person>
    <person id="ped106" depart="3103.33" type="ped_pedestrian">
        <walk from="201768859#0" to="201768813#1"/>
    </person>
    <person id="ped107" depart="3132.60" type="ped_pedestrian">
        <walk from="840848444#0" to="840848446"/>
    </person>
    <person id="ped108" depart="3161.88" type="ped_pedestrian">
        <walk from="201768879#1" to="840491848#1"/>
    </person>
    <person id="ped109" depart="3191.16" type="ped_pedestrian">
        <walk from="-201768875#1" to="-840000822"/>
    </person>
    <person id="ped110" depart="3220.43" type="ped_pedestrian">
        <walk from="840848444#1" to="201768879#2"/>
    </person>
    <person id="ped111" depart="3249.71" type="ped_pedestrian">
        <walk from="201768879#0" to="840491848#3"/>
    </person>
    <person id="ped112" depart="3278.99" type="ped_pedestrian">
        <walk from="-201768813#0" to="201874368"/>
    </person>
    <person id="ped113" depart="3308.26" type="ped_pedestrian">
        <walk from="201768875#0" to="840491851#0"/>
    </person>
    <person id="ped114" depart="3337.54" type="ped_pedestrian">
        <walk from="-201768875#1" to="840848444#0"/>
    </person>
    <person id="ped115" depart="3366.82" type="ped_pedestrian">
        <walk from="-201768844" to="-201768879#1"/>
    </person>
    <person id="ped116" depart="3396.09" type="ped_pedestrian">
        <walk from="201874368" to="840000821#1"/>
    </person>
    <person id="ped117" depart="3425.37" type="ped_pedestrian">
        <walk from="-201879898" to="-201768869"/>
    </person>
    <person id="ped118" depart="3454.65" type="ped_pedestrian">
        <walk from="840491851#3" to="-371351623"/>
    </person>
    <person id="ped119" depart="3483.92" type="ped_pedestrian">
        <walk from="201874368" to="371351623"/>
    </person>
    <person id="ped120" depart="3513.20" type="ped_pedestrian">
        <walk from="201768813#0" to="201874368"/>
    </person>
    <person id="ped121" depart="3542.48" type="ped_pedestrian">
        <walk from="201768875#1" to="840491851#5"/>
    </person>
    <person id="ped122" depart="3571.75" type="ped_pedestrian">
        <walk from="-201768879#2" to="840491848#1"/>
    </person>
</routes>
