<?xml version="1.0" encoding="UTF-8"?>

<!-- generated on 2025-03-21 11:59:15.971627 by osmWebWizard.py v1_22_0+0002-63e50f52594
<configuration>
    <net-file value="C:\Users\Nishita Joshi\Sumo\2025-03-21-11-59-05\osm.net.xml.gz"/>
    <output-trip-file value="C:\Users\Nishita Joshi\Sumo\2025-03-21-11-59-05\osm.truck.trips.xml"/>
    <route-file value="C:\Users\Nishita Joshi\Sumo\2025-03-21-11-59-05\osm.truck.rou.xml"/>
    <prefix value="truck"/>
    <trip-attributes value="departLane=&quot;best&quot;"/>
    <fringe-start-attributes value="departSpeed=&quot;max&quot;"/>
    <vehicle-class value="truck"/>
    <fringe-factor value="8"/>
    <vclass value="truck"/>
    <via-edge-types value="highway.motorway,highway.motorway_link,highway.trunk_link,highway.primary_link,highway.secondary_link,highway.tertiary_link"/>
    <min-distance value="600.0"/>
    <min-distance.fringe value="10.0"/>
    <remove-loops value="True"/>
    <validate value="True"/>
    <insertion-density value="15.0"/>
</configuration>
-->

<!-- generated on 2025-03-21 11:59:15 by Eclipse SUMO duarouter Version 1.22.0
<duarouterConfiguration xmlns:xsi="http://www.w3.org/2001/XMLSchema-instance" xsi:noNamespaceSchemaLocation="http://sumo.dlr.de/xsd/duarouterConfiguration.xsd">

    <input>
        <net-file value="C:\Users\Nishita Joshi\Sumo\2025-03-21-11-59-05\osm.net.xml.gz"/>
        <route-files value="C:\Users\Nishita Joshi\Sumo\2025-03-21-11-59-05\osm.truck.trips.xml"/>
    </input>

    <output>
        <output-file value="C:\Users\Nishita Joshi\Sumo\2025-03-21-11-59-05\osm.truck.trips.xml.tmp"/>
        <alternatives-output value="NUL"/>
        <write-trips value="true"/>
    </output>

    <processing>
        <remove-loops value="true"/>
    </processing>

    <time>
        <begin value="0.0"/>
        <end value="3600.0"/>
    </time>

    <report>
        <no-warnings value="true"/>
        <ignore-errors value="true"/>
        <no-step-log value="true"/>
    </report>

</duarouterConfiguration>
-->

<routes xmlns:xsi="http://www.w3.org/2001/XMLSchema-instance" xsi:noNamespaceSchemaLocation="http://sumo.dlr.de/xsd/routes_file.xsd">
    <vType id="truck_truck" vClass="truck"/>
    <trip id="truck0" type="truck_truck" depart="0.00" departLane="best" from="-404099528#12" to="-201743969"/>
    <trip id="truck1" type="truck_truck" depart="5.21" departLane="best" from="-840032760#7" to="404099528#12"/>
    <trip id="truck2" type="truck_truck" depart="10.42" departLane="best" from="840424839#0" to="201874369#3"/>
    <trip id="truck3" type="truck_truck" depart="15.64" departLane="best" departSpeed="max" from="840480301" to="201768900#1"/>
    <trip id="truck4" type="truck_truck" depart="20.85" departLane="best" from="-840887398#1" to="-201743977"/>
    <trip id="truck5" type="truck_truck" depart="26.06" departLane="best" from="-201768866#6" to="-320687922"/>
    <trip id="truck6" type="truck_truck" depart="31.27" departLane="best" from="404099528#4" to="1068544763"/>
    <trip id="truck7" type="truck_truck" depart="36.49" departLane="best" departSpeed="max" from="-404099528#20" to="201768870#9"/>
    <trip id="truck8" type="truck_truck" depart="41.70" departLane="best" departSpeed="max" from="840424855" to="201874383#1"/>
    <trip id="truck9" type="truck_truck" depart="46.91" departLane="best" from="840491851#4" to="-840424847#0"/>
    <trip id="truck10" type="truck_truck" depart="52.12" departLane="best" departSpeed="max" from="-201874299#2" to="201874269#4"/>
    <trip id="truck11" type="truck_truck" depart="57.34" departLane="best" from="-840447783#0" to="201768871#6"/>
    <trip id="truck12" type="truck_truck" depart="62.55" departLane="best" departSpeed="max" from="840424855" to="320687925#1"/>
    <trip id="truck13" type="truck_truck" depart="67.76" departLane="best" from="-404099528#8" to="-840101695#0"/>
    <trip id="truck14" type="truck_truck" depart="72.97" departLane="best" from="-201874269#3" to="-404099528#4"/>
    <trip id="truck15" type="truck_truck" depart="78.19" departLane="best" from="-201874329#1" to="-840032760#11"/>
    <trip id="truck16" type="truck_truck" depart="83.40" departLane="best" from="-840447805" to="-320687924#2"/>
    <trip id="truck17" type="truck_truck" depart="88.61" departLane="best" from="-840032759" to="840491848#7"/>
    <trip id="truck18" type="truck_truck" depart="93.82" departLane="best" from="404099528#2" to="-201768892#0"/>
    <trip id="truck19" type="truck_truck" depart="99.03" departLane="best" from="840447778#1" to="-404099528#9"/>
    <trip id="truck20" type="truck_truck" depart="104.25" departLane="best" from="-404099528#16" to="840491848#8"/>
    <trip id="truck21" type="truck_truck" depart="109.46" departLane="best" from="449153563#0" to="-840447776"/>
    <trip id="truck22" type="truck_truck" depart="114.67" departLane="best" departSpeed="max" from="840480306" to="-840480301"/>
    <trip id="truck23" type="truck_truck" depart="119.88" departLane="best" from="-840032757" to="-725143351#0"/>
    <trip id="truck24" type="truck_truck" depart="125.10" departLane="best" from="201874373#2" to="-840032753#3"/>
    <trip id="truck25" type="truck_truck" depart="130.31" departLane="best" from="-840829977#0" to="-371351624"/>
    <trip id="truck26" type="truck_truck" depart="135.52" departLane="best" departSpeed="max" from="-201874299#2" to="-201768849#1"/>
    <trip id="truck27" type="truck_truck" depart="140.73" departLane="best" from="-201768885#0" to="-840447773#0"/>
    <trip id="truck28" type="truck_truck" depart="145.95" departLane="best" from="201768834#2" to="320687923#3"/>
    <trip id="truck29" type="truck_truck" depart="151.16" departLane="best" from="840019707#1" to="-840884155"/>
    <trip id="truck30" type="truck_truck" depart="156.37" departLane="best" from="-840032759" to="201874302#2"/>
    <trip id="truck31" type="truck_truck" depart="161.58" departLane="best" departSpeed="max" from="201768834#0" to="840491851#6"/>
    <trip id="truck32" type="truck_truck" depart="166.79" departLane="best" from="-840424840#0" to="201874299#2"/>
    <trip id="truck33" type="truck_truck" depart="172.01" departLane="best" departSpeed="max" from="-201880745" to="-201874379#0"/>
    <trip id="truck34" type="truck_truck" depart="177.22" departLane="best" from="840424845" to="-840884155"/>
    <trip id="truck35" type="truck_truck" depart="182.43" departLane="best" from="840424848#3" to="-840884154"/>
    <trip id="truck36" type="truck_truck" depart="187.64" departLane="best" from="-1223768698" to="-840424843#0"/>
    <trip id="truck37" type="truck_truck" depart="192.86" departLane="best" departSpeed="max" from="840480300" to="840117994"/>
    <trip id="truck38" type="truck_truck" depart="198.07" departLane="best" from="840447807#2" to="840491851#2"/>
    <trip id="truck39" type="truck_truck" depart="203.28" departLane="best" from="-201768900#0" to="404099528#19"/>
    <trip id="truck40" type="truck_truck" depart="208.49" departLane="best" from="-840424846#2" to="-201874314"/>
    <trip id="truck41" type="truck_truck" depart="213.71" departLane="best" from="201768866#8" to="-201743977"/>
    <trip id="truck42" type="truck_truck" depart="218.92" departLane="best" from="-840032757" to="840424851"/>
    <trip id="truck43" type="truck_truck" depart="224.13" departLane="best" departSpeed="max" from="1068544747" to="-320687926#2"/>
    <trip id="truck44" type="truck_truck" depart="229.34" departLane="best" departSpeed="max" from="1068544748" to="-840876730#1"/>
    <trip id="truck45" type="truck_truck" depart="234.56" departLane="best" from="-201768900#1" to="201874299#2"/>
    <trip id="truck46" type="truck_truck" depart="239.77" departLane="best" from="404099528#9" to="840447777#1"/>
    <trip id="truck47" type="truck_truck" depart="244.98" departLane="best" from="201768866#6" to="641227481#4"/>
    <trip id="truck48" type="truck_truck" depart="250.19" departLane="best" from="-840424838#0" to="201874369#3"/>
    <trip id="truck49" type="truck_truck" depart="255.40" departLane="best" from="-840829979" to="-840424847#0"/>
    <trip id="truck50" type="truck_truck" depart="260.62" departLane="best" departSpeed="max" from="-320687925#1" to="-840480300"/>
    <trip id="truck51" type="truck_truck" depart="265.83" departLane="best" from="-840887398#1" to="-840032760#2"/>
    <trip id="truck53" type="truck_truck" depart="276.25" departLane="best" from="201874353#1" to="-201768849#4"/>
    <trip id="truck54" type="truck_truck" depart="281.47" departLane="best" from="-840887398#1" to="840424838#1"/>
    <trip id="truck55" type="truck_truck" depart="286.68" departLane="best" from="840829983#0" to="840480318"/>
    <trip id="truck56" type="truck_truck" depart="291.89" departLane="best" from="-201768870#8" to="-320689216#1"/>
    <trip id="truck57" type="truck_truck" depart="297.10" departLane="best" from="-840829977#1" to="-201768866#5"/>
    <trip id="truck58" type="truck_truck" depart="302.32" departLane="best" departSpeed="max" from="-840480318" to="840829982#2"/>
    <trip id="truck59" type="truck_truck" depart="307.53" departLane="best" from="-840032757" to="641227481#4"/>
    <trip id="truck60" type="truck_truck" depart="312.74" departLane="best" departSpeed="max" from="201768834#0" to="-840447784#0"/>
    <trip id="truck61" type="truck_truck" depart="317.95" departLane="best" from="840491851#5" to="840829983#2"/>
    <trip id="truck62" type="truck_truck" depart="323.17" departLane="best" departSpeed="max" from="-201874383#1" to="-840424837"/>
    <trip id="truck63" type="truck_truck" depart="328.38" departLane="best" from="840829983#0" to="201768870#4"/>
    <trip id="truck64" type="truck_truck" depart="333.59" departLane="best" departSpeed="max" from="201874314" to="320691778"/>
    <trip id="truck65" type="truck_truck" depart="338.80" departLane="best" departSpeed="max" from="-201768871#6" to="201768870#9"/>
    <trip id="truck66" type="truck_truck" depart="344.01" departLane="best" departSpeed="max" from="-201874391" to="840829972#1"/>
    <trip id="truck67" type="truck_truck" depart="349.23" departLane="best" from="-201874269#3" to="201874406#1"/>
    <trip id="truck68" type="truck_truck" depart="354.44" departLane="best" from="840876730#0" to="201768870#9"/>
    <trip id="truck69" type="truck_truck" depart="359.65" departLane="best" departSpeed="max" from="201874299#0" to="840491848#5"/>
    <trip id="truck70" type="truck_truck" depart="364.86" departLane="best" from="404099528#1" to="320687920#0"/>
    <trip id="truck71" type="truck_truck" depart="370.08" departLane="best" from="-201768900#3" to="-840480301"/>
    <trip id="truck72" type="truck_truck" depart="375.29" departLane="best" from="-201768900#4" to="-320689216#0"/>
    <trip id="truck73" type="truck_truck" depart="380.50" departLane="best" from="-840032757" to="840491848#4"/>
    <trip id="truck74" type="truck_truck" depart="385.71" departLane="best" departSpeed="max" from="840480300" to="840424852"/>
    <trip id="truck75" type="truck_truck" depart="390.93" departLane="best" from="840447784#1" to="-201874383#0"/>
    <trip id="truck76" type="truck_truck" depart="396.14" departLane="best" departSpeed="max" from="725143351#0" to="840491848#8"/>
    <trip id="truck77" type="truck_truck" depart="401.35" departLane="best" departSpeed="max" from="-201874352" to="201768829#0"/>
    <trip id="truck79" type="truck_truck" depart="411.78" departLane="best" from="201768871#3" to="840447777#1"/>
    <trip id="truck80" type="truck_truck" depart="416.99" departLane="best" departSpeed="max" from="1068544747" to="-840032760#10"/>
    <trip id="truck81" type="truck_truck" depart="422.20" departLane="best" from="840424841" to="201743987#0"/>
    <trip id="truck82" type="truck_truck" depart="427.41" departLane="best" departSpeed="max" from="840447778#0" to="201768870#8"/>
    <trip id="truck83" type="truck_truck" depart="432.62" departLane="best" from="-840424846#1" to="840447777#0"/>
    <trip id="truck84" type="truck_truck" depart="437.84" departLane="best" departSpeed="max" from="840480303" to="-320687924#2"/>
    <trip id="truck85" type="truck_truck" depart="443.05" departLane="best" from="-840019707#2" to="201874279"/>
    <trip id="truck86" type="truck_truck" depart="448.26" departLane="best" from="-840829982#0" to="201874269#13"/>
    <trip id="truck87" type="truck_truck" depart="453.47" departLane="best" departSpeed="max" from="-201874383#1" to="840491851#3"/>
    <trip id="truck88" type="truck_truck" depart="458.69" departLane="best" departSpeed="max" from="840447785" to="-840829977#0"/>
    <trip id="truck89" type="truck_truck" depart="463.90" departLane="best" from="-201768866#3" to="320687926#3"/>
    <trip id="truck90" type="truck_truck" depart="469.11" departLane="best" departSpeed="max" from="-840424852" to="840491851#3"/>
    <trip id="truck91" type="truck_truck" depart="474.32" departLane="best" departSpeed="max" from="840424850" to="-201874299#0"/>
    <trip id="truck92" type="truck_truck" depart="479.54" departLane="best" departSpeed="max" from="-404099528#20" to="840032760#2"/>
    <trip id="truck93" type="truck_truck" depart="484.75" departLane="best" from="201768849#0" to="-840424839#1"/>
    <trip id="truck94" type="truck_truck" depart="489.96" departLane="best" from="-201768866#2" to="-320687920#1"/>
    <trip id="truck95" type="truck_truck" depart="495.17" departLane="best" from="-840829982#0" to="-840032760#2"/>
    <trip id="truck97" type="truck_truck" depart="505.60" departLane="best" from="840829979" to="-840032753#6"/>
    <trip id="truck98" type="truck_truck" depart="510.81" departLane="best" departSpeed="max" from="-201880745" to="-840829982#0"/>
    <trip id="truck99" type="truck_truck" depart="516.02" departLane="best" departSpeed="max" from="-840829972#2" to="201768870#2"/>
    <trip id="truck100" type="truck_truck" depart="521.23" departLane="best" from="-840032753#3" to="201874404#1"/>
    <trip id="truck101" type="truck_truck" depart="526.45" departLane="best" departSpeed="max" from="840424842#0" to="201874369#2"/>
    <trip id="truck102" type="truck_truck" depart="531.66" departLane="best" from="840447778#4" to="201768870#7"/>
    <trip id="truck104" type="truck_truck" depart="542.08" departLane="best" from="-840424846#2" to="-840447778#0"/>
    <trip id="truck105" type="truck_truck" depart="547.30" departLane="best" from="-840829978" to="-840419589#1"/>
    <trip id="truck107" type="truck_truck" depart="557.72" departLane="best" departSpeed="max" from="840480304" to="201768900#3"/>
    <trip id="truck108" type="truck_truck" depart="562.93" departLane="best" from="-840424841" to="201743974#0"/>
    <trip id="truck109" type="truck_truck" depart="568.15" departLane="best" from="-1223768698" to="-840101695#0"/>
    <trip id="truck110" type="truck_truck" depart="573.36" departLane="best" from="449153563#0" to="-840480303"/>
    <trip id="truck112" type="truck_truck" depart="583.78" departLane="best" from="201768866#6" to="840447777#1"/>
    <trip id="truck113" type="truck_truck" depart="588.99" departLane="best" from="-201874269#8" to="-840829983#2"/>
    <trip id="truck114" type="truck_truck" depart="594.21" departLane="best" departSpeed="max" from="840000825#0" to="404099528#14"/>
    <trip id="truck115" type="truck_truck" depart="599.42" departLane="best" departSpeed="max" from="840447784#0" to="-201768871#1"/>
    <trip id="truck116" type="truck_truck" depart="604.63" departLane="best" from="201768887" to="-725143351#0"/>
    <trip id="truck117" type="truck_truck" depart="609.84" departLane="best" from="449153563#1" to="-1068544747"/>
    <trip id="truck118" type="truck_truck" depart="615.06" departLane="best" from="840424842#1" to="404099528#20"/>
    <trip id="truck119" type="truck_truck" depart="620.27" departLane="best" from="-320687920#0" to="840491851#6"/>
    <trip id="truck120" type="truck_truck" depart="625.48" departLane="best" departSpeed="max" from="201874299#0" to="-201768849#4"/>
    <trip id="truck121" type="truck_truck" depart="630.69" departLane="best" departSpeed="max" from="201768834#0" to="840032753#3"/>
    <trip id="truck122" type="truck_truck" depart="635.91" departLane="best" departSpeed="max" from="725143351#0" to="840829982#2"/>
    <trip id="truck123" type="truck_truck" depart="641.12" departLane="best" from="201874404#1" to="840491851#5"/>
    <trip id="truck124" type="truck_truck" depart="646.33" departLane="best" departSpeed="max" from="840480301" to="201768900#0"/>
    <trip id="truck126" type="truck_truck" depart="656.76" departLane="best" departSpeed="max" from="840447776" to="201743974#0"/>
    <trip id="truck127" type="truck_truck" depart="661.97" departLane="best" departSpeed="max" from="840480303" to="320689216#0"/>
    <trip id="truck128" type="truck_truck" depart="667.18" departLane="best" from="-840019707#0" to="201874299#2"/>
    <trip id="truck129" type="truck_truck" depart="672.39" departLane="best" from="-840424846#2" to="-840876731"/>
    <trip id="truck130" type="truck_truck" depart="677.60" departLane="best" from="320687924#2" to="-840032759"/>
    <trip id="truck131" type="truck_truck" depart="682.82" departLane="best" from="-201874269#13" to="-840101695#0"/>
    <trip id="truck132" type="truck_truck" depart="688.03" departLane="best" departSpeed="max" from="201874314" to="-201874353#1"/>
    <trip id="truck133" type="truck_truck" depart="693.24" departLane="best" from="449153563#1" to="201874383#1"/>
    <trip id="truck134" type="truck_truck" depart="698.45" departLane="best" from="840032760#7" to="-201768870#2"/>
    <trip id="truck135" type="truck_truck" depart="703.67" departLane="best" from="-840876730#1" to="840447777#1"/>
    <trip id="truck136" type="truck_truck" depart="708.88" departLane="best" departSpeed="max" from="201874393" to="201874383#1"/>
    <trip id="truck137" type="truck_truck" depart="714.09" departLane="best" departSpeed="max" from="840447784#0" to="404099528#20"/>
    <trip id="truck138" type="truck_truck" depart="719.30" departLane="best" departSpeed="max" from="-840480318" to="-1068544747"/>
    <trip id="truck139" type="truck_truck" depart="724.52" departLane="best" departSpeed="max" from="840447784#0" to="840491851#6"/>
    <trip id="truck140" type="truck_truck" depart="729.73" departLane="best" from="840876730#0" to="320691777"/>
    <trip id="truck141" type="truck_truck" depart="734.94" departLane="best" from="201874329#3" to="201768871#6"/>
    <trip id="truck142" type="truck_truck" depart="740.15" departLane="best" departSpeed="max" from="-404099528#20" to="-371351624"/>
    <trip id="truck143" type="truck_truck" depart="745.36" departLane="best" departSpeed="max" from="1068544748" to="201743974#0"/>
    <trip id="truck144" type="truck_truck" depart="750.58" departLane="best" from="-840829980" to="-201874393"/>
    <trip id="truck145" type="truck_truck" depart="755.79" departLane="best" from="201768865" to="-201874314"/>
    <trip id="truck146" type="truck_truck" depart="761.00" departLane="best" from="320687923#2" to="-201743971#1"/>
    <trip id="truck147" type="truck_truck" depart="766.21" departLane="best" departSpeed="max" from="-840829975" to="201768865"/>
    <trip id="truck148" type="truck_truck" depart="771.43" departLane="best" from="-201768866#6" to="201874329#1"/>
    <trip id="truck149" type="truck_truck" depart="776.64" departLane="best" from="-201768871#3" to="-840424855"/>
    <trip id="truck150" type="truck_truck" depart="781.85" departLane="best" from="-404099528#17" to="-840424843#0"/>
    <trip id="truck151" type="truck_truck" depart="787.06" departLane="best" from="840424842#2" to="840117994"/>
    <trip id="truck152" type="truck_truck" depart="792.28" departLane="best" from="-201768860" to="-840884155"/>
    <trip id="truck153" type="truck_truck" depart="797.49" departLane="best" from="-840887398#1" to="-840424850"/>
    <trip id="truck154" type="truck_truck" depart="802.70" departLane="best" from="404099528#4" to="641227481#1"/>
    <trip id="truck155" type="truck_truck" depart="807.91" departLane="best" departSpeed="max" from="840491851#0" to="-320687922"/>
    <trip id="truck156" type="truck_truck" depart="813.13" departLane="best" from="-201768865" to="-201874376#1"/>
    <trip id="truck157" type="truck_truck" depart="818.34" departLane="best" from="-201874376#1" to="-320691778"/>
    <trip id="truck158" type="truck_truck" depart="823.55" departLane="best" from="840032760#0" to="404099528#20"/>
    <trip id="truck159" type="truck_truck" depart="828.76" departLane="best" from="-201874406#0" to="201768885#2"/>
    <trip id="truck160" type="truck_truck" depart="833.97" departLane="best" departSpeed="max" from="840424842#0" to="-201874302#0"/>
    <trip id="truck161" type="truck_truck" depart="839.19" departLane="best" departSpeed="max" from="-201874352" to="-201743971#0"/>
    <trip id="truck162" type="truck_truck" depart="844.40" departLane="best" from="-840424848#0" to="201874369#3"/>
    <trip id="truck163" type="truck_truck" depart="849.61" departLane="best" from="840491851#5" to="-840447776"/>
    <trip id="truck165" type="truck_truck" depart="860.04" departLane="best" from="840032753#6" to="201874269#8"/>
    <trip id="truck166" type="truck_truck" depart="865.25" departLane="best" from="-201874329#3" to="-404099528#5"/>
    <trip id="truck167" type="truck_truck" depart="870.46" departLane="best" departSpeed="max" from="840447784#0" to="201768871#6"/>
    <trip id="truck168" type="truck_truck" depart="875.67" departLane="best" departSpeed="max" from="-201874364" to="840829982#1"/>
    <trip id="truck169" type="truck_truck" depart="880.89" departLane="best" from="840447783#2" to="840101695#1"/>
    <trip id="truck170" type="truck_truck" depart="886.10" departLane="best" from="371351624" to="840101695#1"/>
    <trip id="truck171" type="truck_truck" depart="891.31" departLane="best" from="840032760#7" to="-840447786"/>
    <trip id="truck172" type="truck_truck" depart="896.52" departLane="best" from="-840424838#5" to="840829972#1"/>
    <trip id="truck173" type="truck_truck" depart="901.74" departLane="best" departSpeed="max" from="201874314" to="-840480306"/>
    <trip id="truck174" type="truck_truck" depart="906.95" departLane="best" departSpeed="max" from="1068544748" to="320687925#1"/>
    <trip id="truck175" type="truck_truck" depart="912.16" departLane="best" departSpeed="max" from="840447776" to="201768900#1"/>
    <trip id="truck176" type="truck_truck" depart="917.37" departLane="best" from="201768849#5" to="-201768892#1"/>
    <trip id="truck177" type="truck_truck" depart="922.58" departLane="best" from="-404099528#17" to="840032752"/>
    <trip id="truck178" type="truck_truck" depart="927.80" departLane="best" from="-201874269#9" to="320687923#2"/>
    <trip id="truck179" type="truck_truck" depart="933.01" departLane="best" from="201768871#3" to="404099528#17"/>
    <trip id="truck180" type="truck_truck" depart="938.22" departLane="best" from="840032753#6" to="201874344"/>
    <trip id="truck181" type="truck_truck" depart="943.43" departLane="best" from="201768871#5" to="725143351#5"/>
    <trip id="truck182" type="truck_truck" depart="948.65" departLane="best" departSpeed="max" from="-201874299#2" to="-404099528#11"/>
    <trip id="truck183" type="truck_truck" depart="953.86" departLane="best" from="-840032752" to="-201874302#0"/>
    <trip id="truck184" type="truck_truck" depart="959.07" departLane="best" departSpeed="max" from="-320687925#1" to="-201874302#0"/>
    <trip id="truck185" type="truck_truck" depart="964.28" departLane="best" departSpeed="max" from="201874314" to="-404099528#2"/>
    <trip id="truck186" type="truck_truck" depart="969.50" departLane="best" from="-320687924#2" to="-320691086#1"/>
    <trip id="truck187" type="truck_truck" depart="974.71" departLane="best" from="-201768870#7" to="320687924#2"/>
    <trip id="truck189" type="truck_truck" depart="985.13" departLane="best" from="-320687923#1" to="-1068544748"/>
    <trip id="truck190" type="truck_truck" depart="990.35" departLane="best" from="201874302#1" to="-840032758"/>
    <trip id="truck191" type="truck_truck" depart="995.56" departLane="best" departSpeed="max" from="840876731" to="201768829#0"/>
    <trip id="truck192" type="truck_truck" depart="1000.77" departLane="best" from="840032758" to="-201874314"/>
    <trip id="truck193" type="truck_truck" depart="1005.98" departLane="best" departSpeed="max" from="840447786" to="201768867"/>
    <trip id="truck194" type="truck_truck" depart="1011.19" departLane="best" from="201768866#1" to="-840447786"/>
    <trip id="truck195" type="truck_truck" depart="1016.41" departLane="best" from="-320687924#1" to="-201768849#5"/>
    <trip id="truck197" type="truck_truck" depart="1026.83" departLane="best" from="-201768900#4" to="201874279"/>
    <trip id="truck198" type="truck_truck" depart="1032.04" departLane="best" departSpeed="max" from="-201768871#6" to="201874373#1"/>
    <trip id="truck199" type="truck_truck" depart="1037.26" departLane="best" from="201874376#0" to="840424838#6"/>
    <trip id="truck201" type="truck_truck" depart="1047.68" departLane="best" departSpeed="max" from="840884155" to="-840424839#1"/>
    <trip id="truck202" type="truck_truck" depart="1052.89" departLane="best" from="840424840#2" to="840491851#3"/>
    <trip id="truck203" type="truck_truck" depart="1058.11" departLane="best" from="-201874412" to="-201768871#3"/>
    <trip id="truck205" type="truck_truck" depart="1068.53" departLane="best" from="201874404#0" to="-840101695#0"/>
    <trip id="truck206" type="truck_truck" depart="1073.74" departLane="best" from="449153563#1" to="-201874400#1"/>
    <trip id="truck207" type="truck_truck" depart="1078.95" departLane="best" from="840032760#2" to="-840480301"/>
    <trip id="truck208" type="truck_truck" depart="1084.17" departLane="best" departSpeed="max" from="725143351#0" to="840491848#4"/>
    <trip id="truck209" type="truck_truck" depart="1089.38" departLane="best" from="404099528#2" to="-840447778#1"/>
    <trip id="truck210" type="truck_truck" depart="1094.59" departLane="best" departSpeed="max" from="840447776" to="-201768871#0"/>
    <trip id="truck211" type="truck_truck" depart="1099.80" departLane="best" from="-840424837" to="-201874314"/>
    <trip id="truck212" type="truck_truck" depart="1105.02" departLane="best" from="840032753#4" to="201874391"/>
    <trip id="truck214" type="truck_truck" depart="1115.44" departLane="best" departSpeed="max" from="-840424849" to="-725143351#0"/>
    <trip id="truck215" type="truck_truck" depart="1120.65" departLane="best" departSpeed="max" from="840447778#0" to="201768870#0"/>
    <trip id="truck216" type="truck_truck" depart="1125.87" departLane="best" departSpeed="max" from="840491851#0" to="840887398#1"/>
    <trip id="truck217" type="truck_truck" depart="1131.08" departLane="best" departSpeed="max" from="-201768870#9" to="404099528#15"/>
    <trip id="truck218" type="truck_truck" depart="1136.29" departLane="best" from="201768866#2" to="201874352"/>
    <trip id="truck219" type="truck_truck" depart="1141.50" departLane="best" departSpeed="max" from="201874400#0" to="201874299#2"/>
    <trip id="truck220" type="truck_truck" depart="1146.72" departLane="best" from="201768874#1" to="201874269#1"/>
    <trip id="truck221" type="truck_truck" depart="1151.93" departLane="best" departSpeed="max" from="-840424851" to="201874383#1"/>
    <trip id="truck222" type="truck_truck" depart="1157.14" departLane="best" from="840447773#0" to="-201743977"/>
    <trip id="truck223" type="truck_truck" depart="1162.35" departLane="best" departSpeed="max" from="201768834#0" to="-840424842#0"/>
    <trip id="truck224" type="truck_truck" depart="1167.56" departLane="best" departSpeed="max" from="-840424851" to="840829975"/>
    <trip id="truck225" type="truck_truck" depart="1172.78" departLane="best" departSpeed="max" from="-320687925#1" to="-840424853"/>
    <trip id="truck226" type="truck_truck" depart="1177.99" departLane="best" departSpeed="max" from="840424843#0" to="-320687923#1"/>
    <trip id="truck227" type="truck_truck" depart="1183.20" departLane="best" from="-201874353#0" to="840480318"/>
    <trip id="truck228" type="truck_truck" depart="1188.41" departLane="best" departSpeed="max" from="-201874391" to="201743987#0"/>
    <trip id="truck229" type="truck_truck" depart="1193.63" departLane="best" from="201874365#0" to="-201874269#12"/>
    <trip id="truck230" type="truck_truck" depart="1198.84" departLane="best" departSpeed="max" from="840884155" to="840447783#1"/>
    <trip id="truck231" type="truck_truck" depart="1204.05" departLane="best" from="201768849#2" to="-201874302#0"/>
    <trip id="truck232" type="truck_truck" depart="1209.26" departLane="best" departSpeed="max" from="840447776" to="-840480308"/>
    <trip id="truck234" type="truck_truck" depart="1219.69" departLane="best" departSpeed="max" from="840480307" to="-840829979"/>
    <trip id="truck235" type="truck_truck" depart="1224.90" departLane="best" departSpeed="max" from="840480300" to="840424849"/>
    <trip id="truck236" type="truck_truck" depart="1230.11" departLane="best" from="-840032760#8" to="641227481#4"/>
    <trip id="truck237" type="truck_truck" depart="1235.33" departLane="best" departSpeed="max" from="-840829982#2" to="840491848#5"/>
    <trip id="truck238" type="truck_truck" depart="1240.54" departLane="best" from="-201874269#2" to="840032760#7"/>
    <trip id="truck240" type="truck_truck" depart="1250.96" departLane="best" from="201768871#4" to="201874373#1"/>