<?xml version="1.0" encoding="UTF-8"?>

<!-- generated on 2025-03-21 11:59:14.219280 by osmWebWizard.py v1_22_0+0002-63e50f52594
<configuration>
    <net-file value="C:\Users\Nishita Joshi\Sumo\2025-03-21-11-59-05\osm.net.xml.gz"/>
    <output-trip-file value="C:\Users\Nishita Joshi\Sumo\2025-03-21-11-59-05\osm.passenger.trips.xml"/>
    <route-file value="C:\Users\Nishita Joshi\Sumo\2025-03-21-11-59-05\osm.passenger.rou.xml"/>
    <prefix value="veh"/>
    <trip-attributes value="departLane=&quot;best&quot;"/>
    <fringe-start-attributes value="departSpeed=&quot;max&quot;"/>
    <vehicle-class value="passenger"/>
    <lanes value="True"/>
    <fringe-factor value="10"/>
    <allow-fringe.min-length value="1000.0"/>
    <via-edge-types value="highway.motorway,highway.motorway_link,highway.trunk_link,highway.primary_link,highway.secondary_link,highway.tertiary_link"/>
    <min-distance value="300.0"/>
    <min-distance.fringe value="10.0"/>
    <remove-loops value="True"/>
    <validate value="True"/>
    <insertion-density value="20.0"/>
</configuration>
-->

<!-- generated on 2025-03-21 11:59:14 by Eclipse SUMO duarouter Version 1.22.0
<duarouterConfiguration xmlns:xsi="http://www.w3.org/2001/XMLSchema-instance" xsi:noNamespaceSchemaLocation="http://sumo.dlr.de/xsd/duarouterConfiguration.xsd">

    <input>
        <net-file value="C:\Users\Nishita Joshi\Sumo\2025-03-21-11-59-05\osm.net.xml.gz"/>
        <route-files value="C:\Users\Nishita Joshi\Sumo\2025-03-21-11-59-05\osm.passenger.trips.xml"/>
    </input>

    <output>
        <output-file value="C:\Users\Nishita Joshi\Sumo\2025-03-21-11-59-05\osm.passenger.trips.xml.tmp"/>
        <alternatives-output value="NUL"/>
        <write-trips value="true"/>
    </output>

    <processing>
        <remove-loops value="true"/>
    </processing>

    <time>
        <begin value="0.0"/>
        <end value="3600.0"/>
    </time>

    <report>
        <no-warnings value="true"/>
        <ignore-errors value="true"/>
        <no-step-log value="true"/>
    </report>

</duarouterConfiguration>
-->

<routes xmlns:xsi="http://www.w3.org/2001/XMLSchema-instance" xsi:noNamespaceSchemaLocation="http://sumo.dlr.de/xsd/routes_file.xsd">
    <vType id="veh_passenger" vClass="passenger"/>
    <trip id="veh0" type="veh_passenger" depart="0.00" departLane="best" from="-840424840#1" to="-641227481#1"/>
    <trip id="veh1" type="veh_passenger" depart="3.91" departLane="best" departSpeed="max" from="840424850" to="-201874411#1"/>
    <trip id="veh2" type="veh_passenger" depart="7.82" departLane="best" departSpeed="max" from="840480308" to="201874269#2"/>
    <trip id="veh3" type="veh_passenger" depart="11.73" departLane="best" departSpeed="max" from="201768834#0" to="201743974#0"/>
    <trip id="veh4" type="veh_passenger" depart="15.64" departLane="best" from="-201768870#1" to="-320689216#1"/>
    <trip id="veh5" type="veh_passenger" depart="19.55" departLane="best" departSpeed="max" from="-641227481#4" to="201874269#2"/>
    <trip id="veh6" type="veh_passenger" depart="23.46" departLane="best" departSpeed="max" from="840447784#0" to="-1068544747"/>
    <trip id="veh7" type="veh_passenger" depart="27.36" departLane="best" departSpeed="max" from="840447784#0" to="320687926#3"/>
    <trip id="veh8" type="veh_passenger" depart="31.27" departLane="best" from="840447778#5" to="-201874393"/>
    <trip id="veh9" type="veh_passenger" depart="35.18" departLane="best" from="840491851#5" to="-840424853"/>
    <trip id="veh10" type="veh_passenger" depart="39.09" departLane="best" departSpeed="max" from="840480301" to="201874299#2"/>
    <trip id="veh11" type="veh_passenger" depart="43.00" departLane="best" departSpeed="max" from="840447784#0" to="404099528#20"/>
    <trip id="veh12" type="veh_passenger" depart="46.91" departLane="best" from="-840829980" to="201768870#7"/>
    <trip id="veh13" type="veh_passenger" depart="50.82" departLane="best" from="840447805" to="201874352"/>
    <trip id="veh14" type="veh_passenger" depart="54.73" departLane="best" departSpeed="max" from="840480304" to="201768885#2"/>
    <trip id="veh15" type="veh_passenger" depart="58.64" departLane="best" departSpeed="max" from="840424843#0" to="-201768849#0"/>
    <trip id="veh16" type="veh_passenger" depart="62.55" departLane="best" from="725143351#3" to="-840424842#0"/>
    <trip id="veh17" type="veh_passenger" depart="66.46" departLane="best" departSpeed="max" from="-201874299#2" to="-725143351#0"/>
    <trip id="veh18" type="veh_passenger" depart="70.37" departLane="best" departSpeed="max" from="-201874352" to="840424838#6"/>
    <trip id="veh19" type="veh_passenger" depart="74.28" departLane="best" departSpeed="max" from="840000825#0" to="-840447775"/>
    <trip id="veh20" type="veh_passenger" depart="78.19" departLane="best" departSpeed="max" from="-840829975" to="-404099528#15"/>
    <trip id="veh21" type="veh_passenger" depart="82.09" departLane="best" from="840424838#0" to="840491851#6"/>
    <trip id="veh22" type="veh_passenger" depart="86.00" departLane="best" from="840032754#1" to="201874329#1"/>
    <trip id="veh23" type="veh_passenger" depart="89.91" departLane="best" from="-320687920#0" to="-840447778#0"/>
    <trip id="veh24" type="veh_passenger" depart="93.82" departLane="best" departSpeed="max" from="840884154" to="201874369#3"/>
    <trip id="veh25" type="veh_passenger" depart="97.73" departLane="best" from="201874404#0" to="320687923#4"/>
    <trip id="veh26" type="veh_passenger" depart="101.64" departLane="best" departSpeed="max" from="840480301" to="840101695#1"/>
    <trip id="veh27" type="veh_passenger" depart="105.55" departLane="best" from="-840019707#0" to="-201743987#1"/>
    <trip id="veh28" type="veh_passenger" depart="109.46" departLane="best" from="-840424856" to="-840101695#0"/>
    <trip id="veh29" type="veh_passenger" depart="113.37" departLane="best" from="-404099528#8" to="840491851#6"/>
    <trip id="veh30" type="veh_passenger" depart="117.28" departLane="best" from="840032760#11" to="-840447784#0"/>
    <trip id="veh31" type="veh_passenger" depart="121.19" departLane="best" departSpeed="max" from="840491851#0" to="-840480306"/>
    <trip id="veh32" type="veh_passenger" depart="125.10" departLane="best" from="201874411#1" to="-840101695#0"/>
    <trip id="veh33" type="veh_passenger" depart="129.01" departLane="best" from="320687923#2" to="840491848#8"/>
    <trip id="veh34" type="veh_passenger" depart="132.91" departLane="best" departSpeed="max" from="1068544747" to="-404099528#9"/>
    <trip id="veh35" type="veh_passenger" depart="136.82" departLane="best" from="-201874329#1" to="-201768849#1"/>
    <trip id="veh36" type="veh_passenger" depart="140.73" departLane="best" from="-201768900#1" to="-840447778#0"/>
    <trip id="veh37" type="veh_passenger" depart="144.64" departLane="best" departSpeed="max" from="840884155" to="201768829#1"/>
    <trip id="veh38" type="veh_passenger" depart="148.55" departLane="best" from="840876730#0" to="840447778#5"/>
    <trip id="veh39" type="veh_passenger" depart="152.46" departLane="best" from="-840424838#0" to="201874369#3"/>
    <trip id="veh40" type="veh_passenger" depart="156.37" departLane="best" departSpeed="max" from="-201874364" to="-840480301"/>
    <trip id="veh41" type="veh_passenger" depart="160.28" departLane="best" from="201768870#7" to="840491851#6"/>
    <trip id="veh42" type="veh_passenger" depart="164.19" departLane="best" departSpeed="max" from="840480307" to="-840101695#0"/>
    <trip id="veh43" type="veh_passenger" depart="168.10" departLane="best" departSpeed="max" from="201874314" to="-201880745"/>
    <trip id="veh44" type="veh_passenger" depart="172.01" departLane="best" departSpeed="max" from="840491851#0" to="840480318"/>
    <trip id="veh45" type="veh_passenger" depart="175.92" departLane="best" departSpeed="max" from="-840424851" to="201874369#3"/>
    <trip id="veh46" type="veh_passenger" depart="179.83" departLane="best" from="404099528#5" to="-201874393"/>
    <trip id="veh47" type="veh_passenger" depart="183.74" departLane="best" departSpeed="max" from="840447776" to="-201768834#1"/>
    <trip id="veh48" type="veh_passenger" depart="187.64" departLane="best" from="-1223768698" to="-840424850"/>
    <trip id="veh49" type="veh_passenger" depart="191.55" departLane="best" from="-201768866#1" to="840491851#6"/>
    <trip id="veh50" type="veh_passenger" depart="195.46" departLane="best" departSpeed="max" from="840480307" to="840424852"/>
    <trip id="veh51" type="veh_passenger" depart="199.37" departLane="best" departSpeed="max" from="-840424852" to="-201768866#7"/>
    <trip id="veh52" type="veh_passenger" depart="203.28" departLane="best" departSpeed="max" from="840480307" to="840491851#6"/>
    <trip id="veh53" type="veh_passenger" depart="207.19" departLane="best" from="-201874269#13" to="840032753#6"/>
    <trip id="veh54" type="veh_passenger" depart="211.10" departLane="best" from="-840419589#1" to="840480318"/>
    <trip id="veh55" type="veh_passenger" depart="215.01" departLane="best" departSpeed="max" from="201768834#0" to="404099528#18"/>
    <trip id="veh56" type="veh_passenger" depart="218.92" departLane="best" departSpeed="max" from="201874393" to="404099528#20"/>
    <trip id="veh57" type="veh_passenger" depart="222.83" departLane="best" departSpeed="max" from="-404099528#20" to="-840424847#0"/>
    <trip id="veh58" type="veh_passenger" depart="226.74" departLane="best" departSpeed="max" from="840884155" to="201874376#1"/>
    <trip id="veh59" type="veh_passenger" depart="230.65" departLane="best" from="201768860" to="-840884155"/>
    <trip id="veh60" type="veh_passenger" depart="234.56" departLane="best" departSpeed="max" from="-201874369#3" to="-725143351#0"/>
    <trip id="veh61" type="veh_passenger" depart="238.46" departLane="best" from="840447778#2" to="201874269#13"/>
    <trip id="veh62" type="veh_passenger" depart="242.37" departLane="best" from="840019707#1" to="-449153563#0"/>
    <trip id="veh63" type="veh_passenger" depart="246.28" departLane="best" from="-201874269#3" to="201874364"/>
    <trip id="veh64" type="veh_passenger" depart="250.19" departLane="best" from="-725143351#5" to="840491848#8"/>
    <trip id="veh65" type="veh_passenger" depart="254.10" departLane="best" departSpeed="max" from="840480304" to="-201768871#4"/>
    <trip id="veh66" type="veh_passenger" depart="258.01" departLane="best" from="-840032753#6" to="201874391"/>
    <trip id="veh67" type="veh_passenger" depart="261.92" departLane="best" from="449153563#1" to="-201874369#0"/>
    <trip id="veh68" type="veh_passenger" depart="265.83" departLane="best" departSpeed="max" from="840491851#0" to="201768871#6"/>
    <trip id="veh69" type="veh_passenger" depart="269.74" departLane="best" from="201874269#13" to="840117993"/>
    <trip id="veh70" type="veh_passenger" depart="273.65" departLane="best" departSpeed="max" from="840447784#0" to="320687923#1"/>
    <trip id="veh71" type="veh_passenger" depart="277.56" departLane="best" departSpeed="max" from="-201874352" to="-840480301"/>
    <trip id="veh72" type="veh_passenger" depart="281.47" departLane="best" departSpeed="max" from="201768834#0" to="-840480307"/>
    <trip id="veh73" type="veh_passenger" depart="285.38" departLane="best" from="840424848#2" to="201874404#1"/>
    <trip id="veh74" type="veh_passenger" depart="289.28" departLane="best" departSpeed="max" from="1068544747" to="-840424854"/>
    <trip id="veh75" type="veh_passenger" depart="293.19" departLane="best" departSpeed="max" from="840480304" to="-840032756#0"/>
    <trip id="veh76" type="veh_passenger" depart="297.10" departLane="best" from="404099528#11" to="-840480304"/>
    <trip id="veh77" type="veh_passenger" depart="301.01" departLane="best" departSpeed="max" from="201768834#0" to="-840424839#0"/>
    <trip id="veh78" type="veh_passenger" depart="304.92" departLane="best" from="201768866#5" to="840447783#0"/>
    <trip id="veh79" type="veh_passenger" depart="308.83" departLane="best" departSpeed="max" from="201874400#0" to="-201768860"/>
    <trip id="veh80" type="veh_passenger" depart="312.74" departLane="best" from="-840887398#1" to="840424856"/>
    <trip id="veh81" type="veh_passenger" depart="316.65" departLane="best" from="840829983#1" to="840491851#6"/>
    <trip id="veh82" type="veh_passenger" depart="320.56" departLane="best" departSpeed="max" from="840480301" to="-201874400#0"/>
    <trip id="veh83" type="veh_passenger" depart="324.47" departLane="best" departSpeed="max" from="201874299#0" to="-404099528#2"/>
    <trip id="veh84" type="veh_passenger" depart="328.38" departLane="best" departSpeed="max" from="1068544747" to="-201768867"/>
    <trip id="veh85" type="veh_passenger" depart="332.29" departLane="best" from="-840419589#1" to="840117993"/>
    <trip id="veh86" type="veh_passenger" depart="336.20" departLane="best" from="201768871#1" to="-840480300"/>
    <trip id="veh87" type="veh_passenger" depart="340.11" departLane="best" from="840491851#5" to="-840829983#1"/>
    <trip id="veh88" type="veh_passenger" depart="344.01" departLane="best" from="-201874404#0" to="-840424843#0"/>
    <trip id="veh89" type="veh_passenger" depart="347.92" departLane="best" from="840829983#0" to="-201768892#0"/>
    <trip id="veh90" type="veh_passenger" depart="351.83" departLane="best" departSpeed="max" from="201874393" to="641227481#4"/>
    <trip id="veh91" type="veh_passenger" depart="355.74" departLane="best" from="-201768885#0" to="201768900#3"/>
    <trip id="veh92" type="veh_passenger" depart="359.65" departLane="best" departSpeed="max" from="201874314" to="840447777#1"/>
    <trip id="veh93" type="veh_passenger" depart="363.56" departLane="best" departSpeed="max" from="-201874299#2" to="-320687922"/>
    <trip id="veh94" type="veh_passenger" depart="367.47" departLane="best" from="320691778" to="201874406#1"/>
    <trip id="veh95" type="veh_passenger" depart="371.38" departLane="best" from="-840032753#3" to="-201874314"/>
    <trip id="veh96" type="veh_passenger" depart="375.29" departLane="best" departSpeed="max" from="840480308" to="-840032754#1"/>
    <trip id="veh97" type="veh_passenger" depart="379.20" departLane="best" from="320691777" to="201874352"/>
    <trip id="veh99" type="veh_passenger" depart="387.02" departLane="best" from="-201874373#0" to="840491851#6"/>
    <trip id="veh100" type="veh_passenger" depart="390.93" departLane="best" departSpeed="max" from="-404099528#20" to="-404099528#14"/>
    <trip id="veh101" type="veh_passenger" depart="394.83" departLane="best" from="840032754#0" to="-840447784#0"/>
    <trip id="veh103" type="veh_passenger" depart="402.65" departLane="best" from="-840447773#0" to="840019707#0"/>
    <trip id="veh104" type="veh_passenger" depart="406.56" departLane="best" from="-201874269#4" to="-840480306"/>
    <trip id="veh105" type="veh_passenger" depart="410.47" departLane="best" from="840887398#0" to="840829983#2"/>
    <trip id="veh106" type="veh_passenger" depart="414.38" departLane="best" from="-201874269#5" to="404099528#19"/>
    <trip id="veh107" type="veh_passenger" depart="418.29" departLane="best" from="-840419589#1" to="840491851#6"/>
    <trip id="veh108" type="veh_passenger" depart="422.20" departLane="best" departSpeed="max" from="840480307" to="840491848#1"/>
    <trip id="veh109" type="veh_passenger" depart="426.11" departLane="best" departSpeed="max" from="-840829975" to="-201874393"/>
    <trip id="veh110" type="veh_passenger" depart="430.02" departLane="best" departSpeed="max" from="840480300" to="320687926#3"/>
    <trip id="veh111" type="veh_passenger" depart="433.93" departLane="best" from="404099528#9" to="840829982#2"/>
    <trip id="veh112" type="veh_passenger" depart="437.84" departLane="best" from="840032760#0" to="-1068544747"/>
    <trip id="veh113" type="veh_passenger" depart="441.75" departLane="best" departSpeed="max" from="840447785" to="-840424843#0"/>
    <trip id="veh115" type="veh_passenger" depart="449.56" departLane="best" from="201874379#2" to="-201874314"/>
    <trip id="veh116" type="veh_passenger" depart="453.47" departLane="best" departSpeed="max" from="-201874364" to="201768870#8"/>
    <trip id="veh117" type="veh_passenger" depart="457.38" departLane="best" from="-840424839#0" to="201874299#2"/>
    <trip id="veh118" type="veh_passenger" depart="461.29" departLane="best" departSpeed="max" from="840424847#0" to="-371351624"/>
    <trip id="veh119" type="veh_passenger" depart="465.20" departLane="best" departSpeed="max" from="840000825#0" to="-840101695#0"/>
    <trip id="veh120" type="veh_passenger" depart="469.11" departLane="best" departSpeed="max" from="201874299#0" to="840491848#8"/>
    <trip id="veh121" type="veh_passenger" depart="473.02" departLane="best" departSpeed="max" from="840480301" to="-201874269#8"/>
    <trip id="veh122" type="veh_passenger" depart="476.93" departLane="best" departSpeed="max" from="201768834#0" to="-840424838#4"/>
    <trip id="veh124" type="veh_passenger" depart="484.75" departLane="best" from="840019707#0" to="-840101695#0"/>
    <trip id="veh125" type="veh_passenger" depart="488.66" departLane="best" departSpeed="max" from="840424853" to="201768870#6"/>
    <trip id="veh126" type="veh_passenger" depart="492.57" departLane="best" departSpeed="max" from="201768834#0" to="-1068544748"/>
    <trip id="veh127" type="veh_passenger" depart="496.48" departLane="best" from="-201874269#8" to="840491848#3"/>
    <trip id="veh128" type="veh_passenger" depart="500.38" departLane="best" departSpeed="max" from="840480300" to="201768900#1"/>
    <trip id="veh129" type="veh_passenger" depart="504.29" departLane="best" departSpeed="max" from="-840424852" to="840491848#8"/>
    <trip id="veh130" type="veh_passenger" depart="508.20" departLane="best" from="840447778#1" to="840447778#5"/>
    <trip id="veh132" type="veh_passenger" depart="516.02" departLane="best" from="-840032760#2" to="-201874299#0"/>
    <trip id="veh133" type="veh_passenger" depart="519.93" departLane="best" departSpeed="max" from="840447776" to="840491848#3"/>
    <trip id="veh134" type="veh_passenger" depart="523.84" departLane="best" departSpeed="max" from="1068544748" to="-201874353#0"/>
    <trip id="veh135" type="veh_passenger" depart="527.75" departLane="best" from="201874400#1" to="840491851#6"/>
    <trip id="veh136" type="veh_passenger" depart="531.66" departLane="best" departSpeed="max" from="840480304" to="840829975"/>
    <trip id="veh137" type="veh_passenger" depart="535.57" departLane="best" from="840447784#1" to="840491848#2"/>
    <trip id="veh138" type="veh_passenger" depart="539.48" departLane="best" departSpeed="max" from="-840447777#1" to="840491851#6"/>
    <trip id="veh139" type="veh_passenger" depart="543.39" departLane="best" from="840447784#1" to="-840101695#0"/>
    <trip id="veh140" type="veh_passenger" depart="547.30" departLane="best" departSpeed="max" from="840480306" to="-840447778#1"/>
    <trip id="veh141" type="veh_passenger" depart="551.21" departLane="best" departSpeed="max" from="-641227481#4" to="840424849"/>
    <trip id="veh142" type="veh_passenger" depart="555.11" departLane="best" from="201768885#0" to="-840424846#0"/>
    <trip id="veh143" type="veh_passenger" depart="559.02" departLane="best" departSpeed="max" from="840447778#0" to="-725143351#0"/>
    <trip id="veh144" type="veh_passenger" depart="562.93" departLane="best" from="-201768866#7" to="320687923#4"/>
    <trip id="veh145" type="veh_passenger" depart="566.84" departLane="best" from="-840447777#0" to="-840447784#1"/>
    <trip id="veh146" type="veh_passenger" depart="570.75" departLane="best" from="-840829982#0" to="-840424839#0"/>
    <trip id="veh147" type="veh_passenger" depart="574.66" departLane="best" from="840032753#0" to="-840447784#0"/>
    <trip id="veh148" type="veh_passenger" depart="578.57" departLane="best" departSpeed="max" from="840884154" to="201768849#5"/>
    <trip id="veh149" type="veh_passenger" depart="582.48" departLane="best" departSpeed="max" from="840491851#0" to="-201874314"/>
    <trip id="veh150" type="veh_passenger" depart="586.39" departLane="best" from="840829983#2" to="-201880745"/>
    <trip id="veh151" type="veh_passenger" depart="590.30" departLane="best" from="840829978" to="-840101695#0"/>
    <trip id="veh152" type="veh_passenger" depart="594.21" departLane="best" departSpeed="max" from="-201874364" to="-840480301"/>
    <trip id="veh153" type="veh_passenger" depart="598.12" departLane="best" from="404099528#2" to="-840884155"/>
    <trip id="veh154" type="veh_passenger" depart="602.03" departLane="best" departSpeed="max" from="-840829982#2" to="201768885#0"/>
    <trip id="veh157" type="veh_passenger" depart="613.75" departLane="best" departSpeed="max" from="840424853" to="201874391"/>
    <trip id="veh158" type="veh_passenger" depart="617.66" departLane="best" departSpeed="max" from="-840829972#2" to="-201768871#3"/>
    <trip id="veh160" type="veh_passenger" depart="625.48" departLane="best" departSpeed="max" from="-840424852" to="840447774"/>
    <trip id="veh161" type="veh_passenger" depart="629.39" departLane="best" departSpeed="max" from="-840424852" to="-840447785"/>
    <trip id="veh162" type="veh_passenger" depart="633.30" departLane="best" departSpeed="max" from="1068544747" to="-840424843#0"/>
    <trip id="veh163" type="veh_passenger" depart="637.21" departLane="best" from="201874370#0" to="-840480300"/>
    <trip id="veh164" type="veh_passenger" depart="641.12" departLane="best" departSpeed="max" from="840491851#0" to="-201874411#2"/>
    <trip id="veh166" type="veh_passenger" depart="648.94" departLane="best" from="-1223768698" to="-840424842#0"/>
    <trip id="veh167" type="veh_passenger" depart="652.85" departLane="best" from="840032760#10" to="-840480307"/>
    <trip id="veh168" type="veh_passenger" depart="656.76" departLane="best" from="201768866#3" to="-404099528#2"/>
    <trip id="veh169" type="veh_passenger" depart="660.66" departLane="best" from="-201874269#2" to="840491848#8"/>
    <trip id="veh170" type="veh_passenger" depart="664.57" departLane="best" from="840447778#1" to="-201874400#1"/>
    <trip id="veh171" type="veh_passenger" depart="668.48" departLane="best" departSpeed="max" from="840000825#0" to="-840424853"/>
    <trip id="veh173" type="veh_passenger" depart="676.30" departLane="best" departSpeed="max" from="-404099528#20" to="-201743969"/>
    <trip id="veh174" type="veh_passenger" depart="680.21" departLane="best" from="-840032758" to="-840480308"/>
    <trip id="veh175" type="veh_passenger" depart="684.12" departLane="best" departSpeed="max" from="840480303" to="-201768874#0"/>
    <trip id="veh177" type="veh_passenger" depart="691.94" departLane="best" from="-404099528#15" to="-320687926#2"/>
    <trip id="veh178" type="veh_passenger" depart="695.85" departLane="best" departSpeed="max" from="201874302#0" to="201768900#2"/>
    <trip id="veh179" type="veh_passenger" depart="699.76" departLane="best" from="840032760#2" to="-1068544747"/>
    <trip id="veh180" type="veh_passenger" depart="703.67" departLane="best" departSpeed="max" from="-320687925#1" to="840491851#6"/>
    <trip id="veh181" type="veh_passenger" depart="707.58" departLane="best" from="201874369#0" to="-201768849#5"/>
    <trip id="veh182" type="veh_passenger" depart="711.48" departLane="best" from="-840032760#2" to="840447777#0"/>
    <trip id="veh183" type="veh_passenger" depart="715.39" departLane="best" from="201768871#3" to="840424844"/>
    <trip id="veh185" type="veh_passenger" depart="723.21" departLane="best" departSpeed="max" from="840480308" to="201874352"/>
    <trip id="veh186" type="veh_passenger" depart="727.12" departLane="best" departSpeed="max" from="840424847#0" to="-840884154"/>
    <trip id="veh187" type="veh_passenger" depart="731.03" departLane="best" from="-840447807#0" to="-201768870#2"/>
    <trip id="veh189" type="veh_passenger" depart="738.85" departLane="best" from="-201874269#4" to="-840032760#7"/>
    <trip id="veh190" type="veh_passenger" depart="742.76" departLane="best" from="-840032760#10" to="201874369#3"/>
    <trip id="veh191" type="veh_passenger" depart="746.67" departLane="best" from="725143351#3" to="840424838#2"/>
    <trip id="veh192" type="veh_passenger" depart="750.58" departLane="best" from="-201874279" to="-840424842#0"/>
    <trip id="veh193" type="veh_passenger" depart="754.49" departLane="best" departSpeed="max" from="201874393" to="-201874373#2"/>
    <trip id="veh194" type="veh_passenger" depart="758.40" departLane="best" from="-840019707#2" to="320687925#1"/>
    <trip id="veh195" type="veh_passenger" depart="762.31" departLane="best" departSpeed="max" from="1068544748" to="201768866#6"/>
    <trip id="veh197" type="veh_passenger" depart="770.12" departLane="best" from="-840032753#2" to="840491848#8"/>
    <trip id="veh198" type="veh_passenger" depart="774.03" departLane="best" departSpeed="max" from="840480303" to="840032757"/>
    <trip id="veh199" type="veh_passenger" depart="777.94" departLane="best" from="-840829982#1" to="-1068544747"/>
    <trip id="veh200" type="veh_passenger" depart="781.85" departLane="best" departSpeed="max" from="-840480318" to="840019707#2"/>
    <trip id="veh201" type="veh_passenger" depart="785.76" departLane="best" departSpeed="max" from="840480303" to="840491851#6"/>
    <trip id="veh203" type="veh_passenger" depart="793.58" departLane="best" departSpeed="max" from="201874393" to="201874299#2"/>
    <trip id="veh204" type="veh_passenger" depart="797.49" departLane="best" departSpeed="max" from="-641227481#4" to="-449153563#0"/>
    <trip id="veh205" type="veh_passenger" depart="801.40" departLane="best" from="201768849#4" to="-201743971#2"/>
    <trip id="veh206" type="veh_passenger" depart="805.31" departLane="best" departSpeed="max" from="-840447777#1" to="320687920#0"/>
    <trip id="veh207" type="veh_passenger" depart="809.22" departLane="best" from="-840032753#5" to="201874344"/>
    <trip id="veh208" type="veh_passenger" depart="813.13" departLane="best" departSpeed="max" from="725143351#0" to="-201743971#0"/>
    <trip id="veh209" type="veh_passenger" depart="817.03" departLane="best" from="840876730#1" to="201768871#3"/>
    <trip id="veh210" type="veh_passenger" depart="820.94" departLane="best" from="-201768870#2" to="201874369#3"/>
    <trip id="veh211" type="veh_passenger" depart="824.85" departLane="best" from="201874382" to="-840480306"/>
    <trip id="veh212" type="veh_passenger" depart="828.76" departLane="best" departSpeed="max" from="-201768871#6" to="-840447778#0"/>
    <trip id="veh213" type="veh_passenger" depart="832.67" departLane="best" departSpeed="max" from="840424855" to="-840447778#0"/>
    <trip id="veh214" type="veh_passenger" depart="836.58" departLane="best" from="-840887398#1" to="-840424855"/>
    <trip id="veh215" type="veh_passenger" depart="840.49" departLane="best" from="840032756#1" to="840101695#1"/>
    <trip id="veh216" type="veh_passenger" depart="844.40" departLane="best" from="840491851#3" to="-320689216#1"/>
    <trip id="veh217" type="veh_passenger" depart="848.31" departLane="best" from="-201768866#2" to="-201874383#0"/>
    <trip id="veh218" type="veh_passenger" depart="852.22" departLane="best" departSpeed="max" from="-201874369#3" to="201874391"/>
    <trip id="veh219" type="veh_passenger" depart="856.13" departLane="best" departSpeed="max" from="-201880745" to="404099528#8"/>
    <trip id="veh220" type="veh_passenger" depart="860.04" departLane="best" departSpeed="max" from="840424842#0" to="-840032758"/>
    <trip id="veh221" type="veh_passenger" depart="863.95" departLane="best" from="-320687923#3" to="201874302#2"/>
    <trip id="veh222" type="veh_passenger" depart="867.85" departLane="best" departSpeed="max" from="840424854" to="-201874314"/>
    <trip id="veh223" type="veh_passenger" depart="871.76" departLane="best" departSpeed="max" from="840447785" to="840829972#1"/>
    <trip id="veh224" type="veh_passenger" depart="875.67" departLane="best" departSpeed="max" from="-201874364" to="-201743969"/>
    <trip id="veh225" type="veh_passenger" depart="879.58" departLane="best" from="840491851#5" to="-840447784#0"/>
    <trip id="veh226" type="veh_passenger" depart="883.49" departLane="best" from="840424840#1" to="201874364"/>
    <trip id="veh227" type="veh_passenger" depart="887.40" departLane="best" departSpeed="max" from="-201874352" to="840032760#5"/>
    <trip id="veh228" type="veh_passenger" depart="891.31" departLane="best" departSpeed="max" from="840480303" to="201874299#2"/>
    <trip id="veh229" type="veh_passenger" depart="895.22" departLane="best" departSpeed="max" from="-201874369#3" to="840829982#0"/>
    <trip id="veh230" type="veh_passenger" depart="899.13" departLane="best" departSpeed="max" from="840447776" to="-840424855"/>
    <trip id="veh231" type="veh_passenger" depart="903.04" departLane="best" departSpeed="max" from="201768834#0" to="-840447776"/>
    <trip id="veh232" type="veh_passenger" depart="906.95" departLane="best" departSpeed="max" from="201874314" to="-840424854"/>
    <trip id="veh233" type="veh_passenger" depart="910.86" departLane="best" departSpeed="max" from="840480303" to="840424851"/>
    <trip id="veh234" type="veh_passenger" depart="914.77" departLane="best" departSpeed="max" from="-201874364" to="840829972#1"/>
    <trip id="veh235" type="veh_passenger" depart="918.68" departLane="best" departSpeed="max" from="840000825#0" to="840424852"/>
    <trip id="veh236" type="veh_passenger" depart="922.58" departLane="best" departSpeed="max" from="840424843#0" to="-840480301"/>