<?xml version="1.0" encoding="UTF-8"?>

<!-- generated on 2025-03-21 11:59:11.151696 by osmWebWizard.py v1_22_0+0002-63e50f52594
<configuration>
    <net-file value="C:\Users\Nishita Joshi\Sumo\2025-03-21-11-59-05\osm.net.xml.gz"/>
    <output-trip-file value="C:\Users\Nishita Joshi\Sumo\2025-03-21-11-59-05\osm.bicycle.trips.xml"/>
    <route-file value="C:\Users\Nishita Joshi\Sumo\2025-03-21-11-59-05\osm.bicycle.rou.xml"/>
    <prefix value="bike"/>
    <trip-attributes value="departLane=&quot;best&quot;"/>
    <fringe-start-attributes value="departSpeed=&quot;max&quot;"/>
    <vehicle-class value="bicycle"/>
    <fringe-factor value="2"/>
    <vclass value="bicycle"/>
    <via-edge-types value="highway.motorway,highway.motorway_link,highway.trunk_link,highway.primary_link,highway.secondary_link,highway.tertiary_link"/>
    <max-distance value="8000.0"/>
    <remove-loops value="True"/>
    <validate value="True"/>
    <insertion-density value="11.5"/>
</configuration>
-->

<!-- generated on 2025-03-21 11:59:11 by Eclipse SUMO duarouter Version 1.22.0
<duarouterConfiguration xmlns:xsi="http://www.w3.org/2001/XMLSchema-instance" xsi:noNamespaceSchemaLocation="http://sumo.dlr.de/xsd/duarouterConfiguration.xsd">

    <input>
        <net-file value="C:\Users\Nishita Joshi\Sumo\2025-03-21-11-59-05\osm.net.xml.gz"/>
        <route-files value="C:\Users\Nishita Joshi\Sumo\2025-03-21-11-59-05\osm.bicycle.trips.xml"/>
    </input>

    <output>
        <output-file value="C:\Users\Nishita Joshi\Sumo\2025-03-21-11-59-05\osm.bicycle.trips.xml.tmp"/>
        <alternatives-output value="NUL"/>
        <write-trips value="true"/>
    </output>

    <processing>
        <remove-loops value="true"/>
    </processing>

    <time>
        <begin value="0.0"/>
        <end value="3600.0"/>
    </time>

    <report>
        <no-warnings value="true"/>
        <ignore-errors value="true"/>
        <no-step-log value="true"/>
    </report>

</duarouterConfiguration>
-->

<routes xmlns:xsi="http://www.w3.org/2001/XMLSchema-instance" xsi:noNamespaceSchemaLocation="http://sumo.dlr.de/xsd/routes_file.xsd">
    <vType id="bike_bicycle" vClass="bicycle"/>
    <trip id="bike0" type="bike_bicycle" depart="0.00" departLane="best" from="201874382" to="-201743993#1"/>
    <trip id="bike1" type="bike_bicycle" depart="6.38" departLane="best" from="-641227481#1" to="320687923#0"/>
    <trip id="bike2" type="bike_bicycle" depart="12.76" departLane="best" from="641227481#1" to="201874369#0"/>
    <trip id="bike3" type="bike_bicycle" depart="19.14" departLane="best" from="840447778#5" to="-201768871#5"/>
    <trip id="bike4" type="bike_bicycle" depart="25.52" departLane="best" departSpeed="max" from="-840480318" to="201768829#1"/>
    <trip id="bike5" type="bike_bicycle" depart="31.91" departLane="best" from="-320687924#0" to="-840876730#1"/>
    <trip id="bike6" type="bike_bicycle" depart="38.29" departLane="best" from="-201768844" to="-201874404#0"/>
    <trip id="bike7" type="bike_bicycle" depart="44.67" departLane="best" from="201874400#1" to="201768849#0"/>
    <trip id="bike8" type="bike_bicycle" depart="51.05" departLane="best" from="-320687924#1" to="201768870#8"/>
    <trip id="bike9" type="bike_bicycle" depart="57.43" departLane="best" from="-840424838#0" to="-1223768698"/>
    <trip id="bike11" type="bike_bicycle" depart="70.19" departLane="best" from="-840424837" to="201874344"/>
    <trip id="bike12" type="bike_bicycle" depart="76.57" departLane="best" from="840491851#5" to="840032760#3"/>
    <trip id="bike13" type="bike_bicycle" depart="82.95" departLane="best" from="-201768879#1" to="-201768879#1"/>
    <trip id="bike14" type="bike_bicycle" depart="89.33" departLane="best" departSpeed="max" from="840424847#0" to="201768871#4"/>
    <trip id="bike15" type="bike_bicycle" depart="95.72" departLane="best" from="840419589#1" to="320687923#4"/>
    <trip id="bike16" type="bike_bicycle" depart="102.10" departLane="best" from="201768871#1" to="840829977#0"/>
    <trip id="bike17" type="bike_bicycle" depart="108.48" departLane="best" from="-840424848#3" to="-201768849#4"/>
    <trip id="bike18" type="bike_bicycle" depart="114.86" departLane="best" departSpeed="max" from="840424842#0" to="-201768892#1"/>
    <trip id="bike19" type="bike_bicycle" depart="121.24" departLane="best" departSpeed="max" from="840424853" to="201768870#0"/>
    <trip id="bike20" type="bike_bicycle" depart="127.62" departLane="best" from="-404099528#10" to="-201768849#4"/>
    <trip id="bike22" type="bike_bicycle" depart="140.38" departLane="best" from="-201768871#4" to="-320687924#1"/>
    <trip id="bike23" type="bike_bicycle" depart="146.76" departLane="best" from="-201768892#0" to="-449153563#0"/>
    <trip id="bike24" type="bike_bicycle" depart="153.14" departLane="best" from="201874379#0" to="-840424839#1"/>
    <trip id="bike25" type="bike_bicycle" depart="159.53" departLane="best" from="-840424846#2" to="-201874411#2"/>
    <trip id="bike26" type="bike_bicycle" depart="165.91" departLane="best" from="-404099528#8" to="840480318"/>
    <trip id="bike27" type="bike_bicycle" depart="172.29" departLane="best" departSpeed="max" from="201874400#0" to="-201768879#1"/>
    <trip id="bike28" type="bike_bicycle" depart="178.67" departLane="best" from="-201874370#1" to="320687923#4"/>
    <trip id="bike29" type="bike_bicycle" depart="185.05" departLane="best" from="-201874369#1" to="-840424843#0"/>
    <trip id="bike30" type="bike_bicycle" depart="191.43" departLane="best" departSpeed="max" from="840876731" to="201874269#5"/>
    <trip id="bike31" type="bike_bicycle" depart="197.81" departLane="best" from="201768892#0" to="201874370#0"/>
    <trip id="bike32" type="bike_bicycle" depart="204.19" departLane="best" from="840424846#0" to="-404099528#3"/>
    <trip id="bike33" type="bike_bicycle" depart="210.57" departLane="best" from="-320689216#0" to="-201768834#0"/>
    <trip id="bike34" type="bike_bicycle" depart="216.95" departLane="best" from="-840032758" to="404099528#2"/>
    <trip id="bike35" type="bike_bicycle" depart="223.34" departLane="best" from="-320687923#0" to="840491848#2"/>
    <trip id="bike36" type="bike_bicycle" depart="229.72" departLane="best" departSpeed="max" from="840447775" to="840032753#5"/>
    <trip id="bike37" type="bike_bicycle" depart="236.10" departLane="best" from="-201874406#1" to="-840424848#1"/>
    <trip id="bike38" type="bike_bicycle" depart="242.48" departLane="best" departSpeed="max" from="840480300" to="-840480301"/>
    <trip id="bike39" type="bike_bicycle" depart="248.86" departLane="best" from="-404099528#6" to="-371351623"/>
    <trip id="bike40" type="bike_bicycle" depart="255.24" departLane="best" from="-201768900#0" to="404099528#17"/>
    <trip id="bike41" type="bike_bicycle" depart="261.62" departLane="best" from="201874269#8" to="840424851"/>
    <trip id="bike42" type="bike_bicycle" depart="268.00" departLane="best" from="-840447777#0" to="-320687920#1"/>
    <trip id="bike43" type="bike_bicycle" depart="274.38" departLane="best" from="840887398#0" to="-840884154"/>
    <trip id="bike44" type="bike_bicycle" depart="280.76" departLane="best" from="-201768875#0" to="-201768849#5"/>
    <trip id="bike45" type="bike_bicycle" depart="287.15" departLane="best" from="201768900#3" to="201768900#4"/>
    <trip id="bike46" type="bike_bicycle" depart="293.53" departLane="best" from="840032760#5" to="-840447775"/>
    <trip id="bike47" type="bike_bicycle" depart="299.91" departLane="best" from="201768870#4" to="-840424843#1"/>
    <trip id="bike48" type="bike_bicycle" depart="306.29" departLane="best" departSpeed="max" from="840884155" to="201743982"/>
    <trip id="bike49" type="bike_bicycle" depart="312.67" departLane="best" from="-840829982#0" to="840424838#4"/>
    <trip id="bike51" type="bike_bicycle" depart="325.43" departLane="best" from="320687923#4" to="201768813#1"/>
    <trip id="bike52" type="bike_bicycle" depart="331.81" departLane="best" from="404099528#8" to="201874269#6"/>
    <trip id="bike53" type="bike_bicycle" depart="338.19" departLane="best" from="-201768900#4" to="-840447778#5"/>
    <trip id="bike54" type="bike_bicycle" depart="344.57" departLane="best" from="840876730#0" to="840491851#1"/>
    <trip id="bike55" type="bike_bicycle" depart="350.96" departLane="best" from="840447773#3" to="-404099528#17"/>
    <trip id="bike56" type="bike_bicycle" depart="357.34" departLane="best" from="201768849#4" to="-201874373#2"/>
    <trip id="bike57" type="bike_bicycle" depart="363.72" departLane="best" departSpeed="max" from="840480300" to="840424840#2"/>
    <trip id="bike58" type="bike_bicycle" depart="370.10" departLane="best" from="-840032753#2" to="201874269#5"/>
    <trip id="bike59" type="bike_bicycle" depart="376.48" departLane="best" from="-201874353#0" to="-201874329#3"/>
    <trip id="bike60" type="bike_bicycle" depart="382.86" departLane="best" from="-840032752" to="201768829#1"/>
    <trip id="bike61" type="bike_bicycle" depart="389.24" departLane="best" from="840032756#1" to="201743987#0"/>
    <trip id="bike62" type="bike_bicycle" depart="395.62" departLane="best" from="-1223768698" to="-840032756#1"/>
    <trip id="bike63" type="bike_bicycle" depart="402.00" departLane="best" from="-201768829#1" to="-840447805"/>
    <trip id="bike64" type="bike_bicycle" depart="408.38" departLane="best" departSpeed="max" from="840447775" to="840032760#0"/>
    <trip id="bike65" type="bike_bicycle" depart="414.77" departLane="best" from="840032754#2" to="-201768866#2"/>
    <trip id="bike66" type="bike_bicycle" depart="421.15" departLane="best" departSpeed="max" from="840447775" to="840491848#5"/>
    <trip id="bike67" type="bike_bicycle" depart="427.53" departLane="best" from="-201768874#0" to="-840829980"/>
    <trip id="bike68" type="bike_bicycle" depart="433.91" departLane="best" from="-201768870#8" to="404099528#13"/>
    <trip id="bike69" type="bike_bicycle" depart="440.29" departLane="best" from="840032753#3" to="201874269#7"/>
    <trip id="bike71" type="bike_bicycle" depart="453.05" departLane="best" from="-404099528#6" to="840424841"/>
    <trip id="bike72" type="bike_bicycle" depart="459.43" departLane="best" departSpeed="max" from="-840480318" to="-201874412"/>
    <trip id="bike73" type="bike_bicycle" depart="465.81" departLane="best" from="201768871#3" to="320687924#1"/>
    <trip id="bike74" type="bike_bicycle" depart="472.19" departLane="best" from="-320687924#0" to="-840032753#3"/>
    <trip id="bike75" type="bike_bicycle" depart="478.58" departLane="best" departSpeed="max" from="840884155" to="201874299#2"/>
    <trip id="bike76" type="bike_bicycle" depart="484.96" departLane="best" from="-840829980" to="840887398#1"/>
    <trip id="bike77" type="bike_bicycle" depart="491.34" departLane="best" from="-201874269#4" to="320687923#1"/>
    <trip id="bike78" type="bike_bicycle" depart="497.72" departLane="best" from="-840419589#1" to="201768870#8"/>
    <trip id="bike79" type="bike_bicycle" depart="504.10" departLane="best" from="-320689216#1" to="-320687922"/>
    <trip id="bike80" type="bike_bicycle" depart="510.48" departLane="best" departSpeed="max" from="-201768870#9" to="201874269#11"/>
    <trip id="bike81" type="bike_bicycle" depart="516.86" departLane="best" from="-320689216#0" to="840447773#1"/>
    <trip id="bike82" type="bike_bicycle" depart="523.24" departLane="best" departSpeed="max" from="840424850" to="201768870#3"/>
    <trip id="bike83" type="bike_bicycle" depart="529.62" departLane="best" from="371351624" to="201874353#2"/>
    <trip id="bike84" type="bike_bicycle" depart="536.00" departLane="best" from="-320687923#2" to="-201874269#9"/>
    <trip id="bike85" type="bike_bicycle" depart="542.39" departLane="best" from="-840480309" to="201768866#8"/>
    <trip id="bike87" type="bike_bicycle" depart="555.15" departLane="best" from="840424837" to="-201874383#0"/>
    <trip id="bike88" type="bike_bicycle" depart="561.53" departLane="best" from="-201768885#0" to="-840447778#1"/>
    <trip id="bike89" type="bike_bicycle" depart="567.91" departLane="best" departSpeed="max" from="-840480318" to="-840480305"/>
    <trip id="bike90" type="bike_bicycle" depart="574.29" departLane="best" from="404099528#9" to="201874365#0"/>
    <trip id="bike92" type="bike_bicycle" depart="587.05" departLane="best" departSpeed="max" from="-840447777#1" to="-840032760#6"/>
    <trip id="bike93" type="bike_bicycle" depart="593.43" departLane="best" departSpeed="max" from="840424853" to="-371351623"/>
    <trip id="bike94" type="bike_bicycle" depart="599.82" departLane="best" departSpeed="max" from="-201874391" to="-840447786"/>
    <trip id="bike95" type="bike_bicycle" depart="606.20" departLane="best" departSpeed="max" from="-840480318" to="-449153563#0"/>
    <trip id="bike96" type="bike_bicycle" depart="612.58" departLane="best" from="404099528#16" to="840447783#0"/>
    <trip id="bike97" type="bike_bicycle" depart="618.96" departLane="best" from="-840829982#1" to="840424838#5"/>
    <trip id="bike98" type="bike_bicycle" depart="625.34" departLane="best" from="201768879#1" to="201768859#1"/>
    <trip id="bike99" type="bike_bicycle" depart="631.72" departLane="best" from="-840887398#1" to="840032760#2"/>
    <trip id="bike100" type="bike_bicycle" depart="638.10" departLane="best" from="840829981#1" to="840447783#2"/>
    <trip id="bike101" type="bike_bicycle" depart="644.48" departLane="best" departSpeed="max" from="840424847#0" to="-201874368"/>
    <trip id="bike102" type="bike_bicycle" depart="650.86" departLane="best" from="201768829#1" to="-201879898"/>
    <trip id="bike103" type="bike_bicycle" depart="657.24" departLane="best" departSpeed="max" from="-840447777#1" to="201768866#3"/>
    <trip id="bike104" type="bike_bicycle" depart="663.63" departLane="best" from="-840424848#3" to="840829982#2"/>
    <trip id="bike105" type="bike_bicycle" depart="670.01" departLane="best" from="-404099528#6" to="-449153563#0"/>
    <trip id="bike106" type="bike_bicycle" depart="676.39" departLane="best" from="-840876730#1" to="-840447776"/>
    <trip id="bike107" type="bike_bicycle" depart="682.77" departLane="best" from="840491851#5" to="-840876730#0"/>
    <trip id="bike108" type="bike_bicycle" depart="689.15" departLane="best" from="201768887" to="201874412"/>
    <trip id="bike109" type="bike_bicycle" depart="695.53" departLane="best" from="-201874353#2" to="-840000821#0"/>
    <trip id="bike110" type="bike_bicycle" depart="701.91" departLane="best" from="840829981#1" to="201768870#2"/>
    <trip id="bike111" type="bike_bicycle" depart="708.29" departLane="best" from="201768871#5" to="320691777"/>
    <trip id="bike112" type="bike_bicycle" depart="714.67" departLane="best" from="201768870#0" to="201768870#5"/>
    <trip id="bike113" type="bike_bicycle" depart="721.05" departLane="best" from="201768849#5" to="840424837"/>
    <trip id="bike114" type="bike_bicycle" depart="727.44" departLane="best" departSpeed="max" from="-201874364" to="840491851#5"/>
    <trip id="bike115" type="bike_bicycle" depart="733.82" departLane="best" from="-201768871#4" to="-201874379#3"/>
    <trip id="bike116" type="bike_bicycle" depart="740.20" departLane="best" departSpeed="max" from="201874302#0" to="-201874365#1"/>
    <trip id="bike117" type="bike_bicycle" depart="746.58" departLane="best" from="-320691777" to="201874269#13"/>
    <trip id="bike118" type="bike_bicycle" depart="752.96" departLane="best" from="840447778#4" to="-320691778"/>
    <trip id="bike119" type="bike_bicycle" depart="759.34" departLane="best" departSpeed="max" from="201874302#0" to="-201768892#1"/>
    <trip id="bike120" type="bike_bicycle" depart="765.72" departLane="best" from="-840480305" to="201768870#5"/>
    <trip id="bike121" type="bike_bicycle" depart="772.10" departLane="best" from="201768870#0" to="840480309"/>
    <trip id="bike122" type="bike_bicycle" depart="778.48" departLane="best" from="-201874411#2" to="-201874411#1"/>
    <trip id="bike123" type="bike_bicycle" depart="784.86" departLane="best" from="371351624" to="-840424848#1"/>
    <trip id="bike124" type="bike_bicycle" depart="791.25" departLane="best" departSpeed="max" from="320687922" to="-840000822"/>
    <trip id="bike125" type="bike_bicycle" depart="797.63" departLane="best" from="-840032758" to="371351624"/>
    <trip id="bike126" type="bike_bicycle" depart="804.01" departLane="best" departSpeed="max" from="-201768870#9" to="-840480301"/>
    <trip id="bike127" type="bike_bicycle" depart="810.39" departLane="best" from="840887398#0" to="840876730#1"/>
    <trip id="bike128" type="bike_bicycle" depart="816.77" departLane="best" from="-201768871#0" to="-201879898"/>
    <trip id="bike129" type="bike_bicycle" depart="823.15" departLane="best" from="-404099528#6" to="840480305"/>
    <trip id="bike130" type="bike_bicycle" depart="829.53" departLane="best" departSpeed="max" from="840447776" to="840424845"/>
    <trip id="bike131" type="bike_bicycle" depart="835.91" departLane="best" from="-840424846#1" to="201874353#0"/>
    <trip id="bike132" type="bike_bicycle" depart="842.29" departLane="best" from="840424842#2" to="201874391"/>
    <trip id="bike133" type="bike_bicycle" depart="848.67" departLane="best" from="-201874353#1" to="840829982#2"/>
    <trip id="bike134" type="bike_bicycle" depart="855.06" departLane="best" from="-201874406#0" to="-201743969"/>
    <trip id="bike135" type="bike_bicycle" depart="861.44" departLane="best" from="840424838#5" to="-840000822"/>
    <trip id="bike137" type="bike_bicycle" depart="874.20" departLane="best" departSpeed="max" from="-201874299#2" to="201874269#1"/>
    <trip id="bike138" type="bike_bicycle" depart="880.58" departLane="best" from="201768900#1" to="201768849#5"/>
    <trip id="bike139" type="bike_bicycle" depart="886.96" departLane="best" from="-591567647" to="201768875#0"/>
    <trip id="bike140" type="bike_bicycle" depart="893.34" departLane="best" from="404099528#18" to="201874406#1"/>
    <trip id="bike141" type="bike_bicycle" depart="899.72" departLane="best" from="201874376#1" to="404099528#17"/>
    <trip id="bike142" type="bike_bicycle" depart="906.10" departLane="best" departSpeed="max" from="201768834#0" to="840447773#1"/>
    <trip id="bike143" type="bike_bicycle" depart="912.48" departLane="best" from="-840424846#2" to="-201768875#1"/>
    <trip id="bike144" type="bike_bicycle" depart="918.87" departLane="best" departSpeed="max" from="-840480318" to="404099528#9"/>
    <trip id="bike146" type="bike_bicycle" depart="931.63" departLane="best" from="201874379#2" to="-404099528#16"/>
    <trip id="bike147" type="bike_bicycle" depart="938.01" departLane="best" departSpeed="max" from="725143351#0" to="201768849#4"/>
    <trip id="bike148" type="bike_bicycle" depart="944.39" departLane="best" departSpeed="max" from="-840829972#2" to="-201743969"/>
    <trip id="bike149" type="bike_bicycle" depart="950.77" departLane="best" from="-201768871#1" to="-840424846#1"/>
    <trip id="bike150" type="bike_bicycle" depart="957.15" departLane="best" departSpeed="max" from="840447785" to="201768849#0"/>
    <trip id="bike151" type="bike_bicycle" depart="963.53" departLane="best" departSpeed="max" from="840424843#0" to="-201768870#4"/>
    <trip id="bike152" type="bike_bicycle" depart="969.91" departLane="best" departSpeed="max" from="-201874352" to="-201874269#6"/>
    <trip id="bike153" type="bike_bicycle" depart="976.29" departLane="best" from="840032754#2" to="840424852"/>
    <trip id="bike154" type="bike_bicycle" depart="982.68" departLane="best" from="840032760#8" to="840424838#4"/>
    <trip id="bike155" type="bike_bicycle" depart="989.06" departLane="best" departSpeed="max" from="840447784#0" to="-201874411#2"/>
    <trip id="bike156" type="bike_bicycle" depart="995.44" departLane="best" from="-404099528#16" to="-201768887"/>
    <trip id="bike157" type="bike_bicycle" depart="1001.82" departLane="best" from="-840032757" to="840424846#2"/>
    <trip id="bike158" type="bike_bicycle" depart="1008.20" departLane="best" from="840447778#4" to="201768892#2"/>
    <trip id="bike159" type="bike_bicycle" depart="1014.58" departLane="best" from="-201874353#2" to="840447807#0"/>
    <trip id="bike160" type="bike_bicycle" depart="1020.96" departLane="best" departSpeed="max" from="840424854" to="840829979"/>
    <trip id="bike161" type="bike_bicycle" depart="1027.34" departLane="best" from="840424838#1" to="840424846#0"/>
    <trip id="bike162" type="bike_bicycle" depart="1033.72" departLane="best" from="-201768842" to="320687925#1"/>
    <trip id="bike165" type="bike_bicycle" depart="1052.87" departLane="best" from="-840424838#1" to="404099528#19"/>
    <trip id="bike166" type="bike_bicycle" depart="1059.25" departLane="best" from="840032760#11" to="-201768900#0"/>
    <trip id="bike167" type="bike_bicycle" depart="1065.63" departLane="best" from="-840447773#1" to="840424838#3"/>
    <trip id="bike168" type="bike_bicycle" depart="1072.01" departLane="best" from="-320687925#0" to="840032753#5"/>
    <trip id="bike169" type="bike_bicycle" depart="1078.39" departLane="best" departSpeed="max" from="1068544747" to="-840019707#3"/>
    <trip id="bike170" type="bike_bicycle" depart="1084.77" departLane="best" from="840032760#7" to="-320687923#3"/>
    <trip id="bike171" type="bike_bicycle" depart="1091.15" departLane="best" from="-201768834#2" to="-201874393"/>
    <trip id="bike172" type="bike_bicycle" depart="1097.53" departLane="best" from="840032760#6" to="840424839#0"/>
    <trip id="bike173" type="bike_bicycle" depart="1103.91" departLane="best" from="840829980" to="-449153563#1"/>
    <trip id="bike174" type="bike_bicycle" depart="1110.30" departLane="best" departSpeed="max" from="201874383#0" to="-840424848#3"/>
    <trip id="bike175" type="bike_bicycle" depart="1116.68" departLane="best" from="840848444#1" to="201768813#1"/>
    <trip id="bike177" type="bike_bicycle" depart="1129.44" departLane="best" from="840829982#0" to="-201874373#2"/>
    <trip id="bike178" type="bike_bicycle" depart="1135.82" departLane="best" from="840829977#1" to="-404099528#18"/>
    <trip id="bike179" type="bike_bicycle" depart="1142.20" departLane="best" from="-201768900#2" to="-840447778#5"/>
    <trip id="bike180" type="bike_bicycle" depart="1148.58" departLane="best" from="-404099528#9" to="840032753#5"/>
    <trip id="bike181" type="bike_bicycle" depart="1154.96" departLane="best" from="201874329#4" to="-840884154"/>
    <trip id="bike182" type="bike_bicycle" depart="1161.34" departLane="best" departSpeed="max" from="-840424852" to="-201768870#0"/>
    <trip id="bike183" type="bike_bicycle" depart="1167.73" departLane="best" from="-404099528#19" to="201874404#0"/>
    <trip id="bike185" type="bike_bicycle" depart="1180.49" departLane="best" from="201768871#2" to="320687920#0"/>
    <trip id="bike186" type="bike_bicycle" depart="1186.87" departLane="best" from="725143351#2" to="201874364"/>
    <trip id="bike187" type="bike_bicycle" depart="1193.25" departLane="best" from="-840424844" to="-201768870#2"/>
    <trip id="bike189" type="bike_bicycle" depart="1206.01" departLane="best" from="-840032757" to="840117993"/>
    <trip id="bike190" type="bike_bicycle" depart="1212.39" departLane="best" from="-404099528#2" to="-840019707#0"/>
    <trip id="bike191" type="bike_bicycle" depart="1218.77" departLane="best" from="840032755" to="-840424854"/>
    <trip id="bike192" type="bike_bicycle" depart="1225.15" departLane="best" departSpeed="max" from="-840447777#1" to="-840000821#0"/>
    <trip id="bike193" type="bike_bicycle" depart="1231.54" departLane="best" from="-201874269#8" to="-840447775"/>
    <trip id="bike195" type="bike_bicycle" depart="1244.30" departLane="best" departSpeed="max" from="840447785" to="201768887"/>
    <trip id="bike196" type="bike_bicycle" depart="1250.68" departLane="best" from="-840032753#4" to="201768849#2"/>
    <trip id="bike197" type="bike_bicycle" depart="1257.06" departLane="best" from="1068544763" to="-725143351#0"/>
    <trip id="bike198" type="bike_bicycle" depart="1263.44" departLane="best" departSpeed="max" from="-840829975" to="201768870#2"/>
    <trip id="bike199" type="bike_bicycle" depart="1269.82" departLane="best" from="201874406#0" to="-840480304"/>
    <trip id="bike200" type="bike_bicycle" depart="1276.20" departLane="best" from="-840829982#1" to="-201879898"/>
    <trip id="bike202" type="bike_bicycle" depart="1288.96" departLane="best" from="840032760#8" to="201874369#1"/>
    <trip id="bike203" type="bike_bicycle" depart="1295.35" departLane="best" departSpeed="max" from="-201768871#6" to="-840887398#0"/>
    <trip id="bike204" type="bike_bicycle" depart="1301.73" departLane="best" from="201874376#1" to="-840032760#2"/>
    <trip id="bike205" type="bike_bicycle" depart="1308.11" departLane="best" from="840424838#6" to="371351624"/>
    <trip id="bike206" type="bike_bicycle" depart="1314.49" departLane="best" departSpeed="max" from="320687922" to="320687923#1"/>
    <trip id="bike207" type="bike_bicycle" depart="1320.87" departLane="best" from="-201874409" to="-201743993#1"/>
    <trip id="bike208" type="bike_bicycle" depart="1327.25" departLane="best" from="-404099528#13" to="-840480308"/>
    <trip id="bike209" type="bike_bicycle" depart="1333.63" departLane="best" from="840424847#1" to="-201768870#4"/>
    <trip id="bike210" type="bike_bicycle" depart="1340.01" departLane="best" from="840447784#1" to="201874269#1"/>
    <trip id="bike211" type="bike_bicycle" depart="1346.39" departLane="best" from="201874404#1" to="201874379#2"/>
    <trip id="bike212" type="bike_bicycle" depart="1352.77" departLane="best" from="201768849#0" to="320691777"/>
    <trip id="bike213" type="bike_bicycle" depart="1359.16" departLane="best" from="-201874406#1" to="-1068544748"/>
    <trip id="bike214" type="bike_bicycle" depart="1365.54" departLane="best" from="840000822" to="404099528#19"/>
    <trip id="bike215" type="bike_bicycle" depart="1371.92" departLane="best" from="-201768900#1" to="-840447776"/>
    <trip id="bike216" type="bike_bicycle" depart="1378.30" departLane="best" from="-201874373#2" to="840491851#3"/>
    <trip id="bike217" type="bike_bicycle" depart="1384.68" departLane="best" from="-201768866#7" to="201768859#1"/>
    <trip id="bike218" type="bike_bicycle" depart="1391.06" departLane="best" from="-404099528#15" to="840117993"/>
    <trip id="bike219" type="bike_bicycle" depart="1397.44" departLane="best" from="-840887398#0" to="840000821#1"/>
    <trip id="bike220" type="bike_bicycle" depart="1403.82" departLane="best" departSpeed="max" from="-201880745" to="840829982#2"/>
    <trip id="bike221" type="bike_bicycle" depart="1410.20" departLane="best" departSpeed="max" from="201874302#0" to="840491848#7"/>
    <trip id="bike222" type="bike_bicycle" depart="1416.58" departLane="best" from="840447778#5" to="201768885#0"/>
    <trip id="bike223" type="bike_bicycle" depart="1422.97" departLane="best" from="-404099528#19" to="-840876730#1"/>
    <trip id="bike224" type="bike_bicycle" depart="1429.35" departLane="best" departSpeed="max" from="840424842#0" to="-201768849#2"/>
    <trip id="bike225" type="bike_bicycle" depart="1435.73" departLane="best" departSpeed="max" from="840447784#0" to="-320689216#1"/>
    <trip id="bike227" type="bike_bicycle" depart="1448.49" departLane="best" from="404099528#14" to="201874269#4"/>
    <trip id="bike228" type="bike_bicycle" depart="1454.87" departLane="best" from="-840032753#3" to="201743971#2"/>
    <trip id="bike229" type="bike_bicycle" depart="1461.25" departLane="best" from="-201874370#1" to="-404099528#6"/>
    <trip id="bike230" type="bike_bicycle" depart="1467.63" departLane="best" from="-201768871#2" to="641227481#3"/>
    <trip id="bike231" type="bike_bicycle" depart="1474.01" departLane="best" from="-591567647" to="-840032754#2"/>
    <trip id="bike232" type="bike_bicycle" depart="1480.39" departLane="best" from="201768871#3" to="-201874299#1"/>
    <trip id="bike233" type="bike_bicycle" depart="1486.78" departLane="best" from="-320689216#1" to="201874376#1"/>
    <trip id="bike234" type="bike_bicycle" depart="1493.16" departLane="best" from="-404099528#11" to="-201768867"/>
    <trip id="bike235" type="bike_bicycle" depart="1499.54" departLane="best" from="840447778#5" to="201768834#2"/>
    <trip id="bike236" type="bike_bicycle" depart="1505.92" departLane="best" from="-840447805" to="-201874411#0"/>
    <trip id="bike237" type="bike_bicycle" depart="1512.30" departLane="best" from="-840480309" to="840447773#1"/>
    <trip id="bike238" type="bike_bicycle" depart="1518.68" departLane="best" from="201874269#8" to="201874379#2"/>
    <trip id="bike239" type="bike_bicycle" depart="1525.06" departLane="best" departSpeed="max" from="840424850" to="404099528#16"/>
    <trip id="bike240" type="bike_bicycle" depart="1531.44" departLane="best" departSpeed="max" from="-840424849" to="-1068544748"/>
    <trip id="bike241" type="bike_bicycle" depart="1537.82" departLane="best" from="840424839#0" to="371351627"/>
    <trip id="bike242" type="bike_bicycle" depart="1544.20" departLane="best" from="840424848#1" to="840491848#8"/>
    <trip id="bike243" type="bike_bicycle" depart="1550.59" departLane="best" from="-840480305" to="320691086#1"/>
    <trip id="bike244" type="bike_bicycle" depart="1556.97" departLane="best" from="201768875#1" to="201768874#1"/>
    <trip id="bike245" type="bike_bicycle" depart="1563.35" departLane="best" from="-320687924#1" to="-320687922"/>
    <trip id="bike246" type="bike_bicycle" depart="1569.73" departLane="best" from="-840829979" to="201768829#1"/>