<additional><inductionLoop id="rsu_0" lane=":7842267691_9_0" pos="3.6896070251450768" freq="1" file="detector_output.xml" /><inductionLoop id="rsu_1" lane=":2118955064_0_0" pos="4.07" freq="1" file="detector_output.xml" /><inductionLoop id="rsu_2" lane="840424850_0" pos="1.5947727110782788" freq="1" file="detector_output.xml" /><inductionLoop id="rsu_3" lane=":7846290057_10_0" pos="3.7026747089097625" freq="1" file="detector_output.xml" /><inductionLoop id="rsu_4" lane=":2117582416_18_0" pos="3.3226645933647885" freq="1" file="detector_output.xml" /><inductionLoop id="rsu_5" lane=":2117819141_16_0" pos="3.1267874887814098" freq="1" file="detector_output.xml" /><inductionLoop id="rsu_6" lane="641227481#1_0" pos="4.3" freq="1" file="detector_output.xml" /><inductionLoop id="rsu_7" lane=":cluster_2118915185_7842267716_16_0" pos="5.8064877507837105" freq="1" file="detector_output.xml" /><inductionLoop id="rsu_8" lane=":2117819620_18_0" pos="3.281234523773055" freq="1" file="detector_output.xml" /><inductionLoop id="rsu_9" lane="840424853_0" pos="1.5970597985047692" freq="1" file="detector_output.xml" /><inductionLoop id="rsu_10" lane=":2118915196_10_0" pos="3.169006153354701" freq="1" file="detector_output.xml" /><inductionLoop id="rsu_11" lane=":2118916005_7_0" pos="1.762980430974795" freq="1" file="detector_output.xml" /><inductionLoop id="rsu_12" lane=":cluster_2117819647_7842247650_18_0" pos="5.733524221628455" freq="1" file="detector_output.xml" /><inductionLoop id="rsu_13" lane=":2117819430_10_0" pos="4.053060571962885" freq="1" file="detector_output.xml" /><inductionLoop id="rsu_14" lane=":2118915714_10_0" pos="2.828798331447562" freq="1" file="detector_output.xml" /><inductionLoop id="rsu_15" lane=":2118915275_9_0" pos="4.086783576359319" freq="1" file="detector_output.xml" /><inductionLoop id="rsu_16" lane="840848446_0" pos="1.6012495120999162" freq="1" file="detector_output.xml" /><inductionLoop id="rsu_17" lane=":7842247667_18_0" pos="3.1312936623701746" freq="1" file="detector_output.xml" /><inductionLoop id="rsu_18" lane=":2117819591_3_0" pos="4.2" freq="1" file="detector_output.xml" /><inductionLoop id="rsu_19" lane="-725143351#0_0" pos="7.4" freq="1" file="detector_output.xml" /><inductionLoop id="rsu_20" lane=":2117819451_10_0" pos="2.780017985553304" freq="1" file="detector_output.xml" /><inductionLoop id="rsu_21" lane="201768859#1_0" pos="3.677200021755644" freq="1" file="detector_output.xml" /><inductionLoop id="rsu_22" lane=":cluster_2117819031_2117819134_6_0" pos="5.14" freq="1" file="detector_output.xml" /><inductionLoop id="rsu_23" lane=":cluster_2116160326_7842901653_20_0" pos="2.2668480319597695" freq="1" file="detector_output.xml" /><inductionLoop id="rsu_24" lane=":cluster_2116160415_2118915215_17_0" pos="4.005621050473969" freq="1" file="detector_output.xml" /><inductionLoop id="rsu_25" lane="-201768870#9_0" pos="1.6051479682571639" freq="1" file="detector_output.xml" /><inductionLoop id="rsu_26" lane=":2118915702_18_0" pos="3.1871774346591772" freq="1" file="detector_output.xml" /><inductionLoop id="rsu_27" lane=":cluster_2117819279_2117819295_16_0" pos="6.049561967613846" freq="1" file="detector_output.xml" /><inductionLoop id="rsu_28" lane=":2117819013_16_0" pos="3.303891644712328" freq="1" file="detector_output.xml" /><inductionLoop id="rsu_29" lane=":5647506817_9_0" pos="3.184022612985083" freq="1" file="detector_output.xml" /><inductionLoop id="rsu_30" lane=":2117819319_9_0" pos="3.3687980052238355" freq="1" file="detector_output.xml" /><inductionLoop id="rsu_31" lane="840480306_0" pos="1.6029036153181675" freq="1" file="detector_output.xml" /><inductionLoop id="rsu_32" lane=":cluster_2117819118_2117819443_3_0" pos="4.39" freq="1" file="detector_output.xml" /><inductionLoop id="rsu_33" lane=":2118915273_9_0" pos="3.3058886853613747" freq="1" file="detector_output.xml" /><inductionLoop id="rsu_34" lane=":7845931109_6_0" pos="4.02" freq="1" file="detector_output.xml" /><inductionLoop id="rsu_35" lane=":7842498828_10_0" pos="3.3587646538571123" freq="1" file="detector_output.xml" /><inductionLoop id="rsu_36" lane=":7842247672_9_0" pos="4.0521599178709735" freq="1" file="detector_output.xml" /><inductionLoop id="rsu_37" lane="840491851#6_0" pos="6.564030773846197" freq="1" file="detector_output.xml" /><inductionLoop id="rsu_38" lane=":2116160369_10_0" pos="3.5943984197637424" freq="1" file="detector_output.xml" /><inductionLoop id="rsu_39" lane="840480303_0" pos="1.5913830462839467" freq="1" file="detector_output.xml" /><inductionLoop id="rsu_40" lane=":cluster_7842498890_7842813116_8_0" pos="8.04" freq="1" file="detector_output.xml" /><inductionLoop id="rsu_41" lane="-201768849#5_0" pos="6.381676895612926" freq="1" file="detector_output.xml" /><inductionLoop id="rsu_42" lane=":2118915126_10_0" pos="2.6347295876427865" freq="1" file="detector_output.xml" /><inductionLoop id="rsu_43" lane=":2118916121_9_0" pos="3.877383138148649" freq="1" file="detector_output.xml" /><inductionLoop id="rsu_44" lane=":2118916245_10_0" pos="3.5468436672624617" freq="1" file="detector_output.xml" /><inductionLoop id="rsu_45" lane=":2117582534_0_0" pos="4.06" freq="1" file="detector_output.xml" /><inductionLoop id="rsu_46" lane=":cluster_2118915984_7842498815_12_0" pos="8.07" freq="1" file="detector_output.xml" /><inductionLoop id="rsu_47" lane="201743982_0" pos="3.0831477421621822" freq="1" file="detector_output.xml" /><inductionLoop id="rsu_48" lane=":cluster_2117818999_7842267707_18_0" pos="1.5945218719101288" freq="1" file="detector_output.xml" /><inductionLoop id="rsu_49" lane=":2118915121_10_0" pos="3.294738229359032" freq="1" file="detector_output.xml" /><inductionLoop id="rsu_50" lane="840480301_0" pos="1.6022796260328471" freq="1" file="detector_output.xml" /><inductionLoop id="rsu_51" lane=":2118915131_9_0" pos="3.210996729988868" freq="1" file="detector_output.xml" /><inductionLoop id="rsu_52" lane=":2117819566_16_0" pos="3.2458126871401385" freq="1" file="detector_output.xml" /><inductionLoop id="rsu_53" lane="-840447777#1_0" pos="1.5981239000778238" freq="1" file="detector_output.xml" /><inductionLoop id="rsu_54" lane="840424842#0_0" pos="1.595399636454793" freq="1" file="detector_output.xml" /><inductionLoop id="rsu_55" lane="201768834#0_0" pos="1.601780259586157" freq="1" file="detector_output.xml" /><inductionLoop id="rsu_56" lane="840491848#7_0" pos="4.159146547069539" freq="1" file="detector_output.xml" /><inductionLoop id="rsu_57" lane="-201874369#3_0" pos="1.6031219541881" freq="1" file="detector_output.xml" /><inductionLoop id="rsu_58" lane=":2117819638_9_0" pos="2.990418030978288" freq="1" file="detector_output.xml" /><inductionLoop id="rsu_59" lane=":2117819673_9_0" pos="4.906526266107213" freq="1" file="detector_output.xml" /><inductionLoop id="rsu_60" lane=":cluster_2117819294_7842813153_16_0" pos="3.7780947579434234" freq="1" file="detector_output.xml" /><inductionLoop id="rsu_61" lane=":2117818937_16_0" pos="3.5756118357562463" freq="1" file="detector_output.xml" /><inductionLoop id="rsu_62" lane=":cluster_2118915706_6799931165_2_0" pos="4.47" freq="1" file="detector_output.xml" /><inductionLoop id="rsu_63" lane=":2117582745_9_0" pos="3.372432356623349" freq="1" file="detector_output.xml" /><inductionLoop id="rsu_64" lane="840491848#5_0" pos="6.961738288674771" freq="1" file="detector_output.xml" /><inductionLoop id="rsu_65" lane=":2118915235_10_0" pos="2.58652276232009" freq="1" file="detector_output.xml" /><inductionLoop id="rsu_66" lane=":2118915307_16_0" pos="3.3101359488697653" freq="1" file="detector_output.xml" /><inductionLoop id="rsu_67" lane=":2117582770_3_0" pos="7.058229239688951" freq="1" file="detector_output.xml" /><inductionLoop id="rsu_68" lane="840876731_0" pos="1.597654530867069" freq="1" file="detector_output.xml" /><inductionLoop id="rsu_69" lane=":7842267701_9_0" pos="3.766430671073073" freq="1" file="detector_output.xml" /><inductionLoop id="rsu_70" lane=":2118955266_10_0" pos="3.3943629741087036" freq="1" file="detector_output.xml" /><inductionLoop id="rsu_71" lane=":2117819183_9_0" pos="3.3163986491373825" freq="1" file="detector_output.xml" /></additional>