<?xml version="1.0" encoding="UTF-8"?>

<!-- generated on 2025-03-21 11:59:09 by Eclipse SUMO netconvert Version 1.22.0
<netconvertConfiguration xmlns:xsi="http://www.w3.org/2001/XMLSchema-instance" xsi:noNamespaceSchemaLocation="http://sumo.dlr.de/xsd/netconvertConfiguration.xsd">

    <input>
        <type-files value="${SUMO_HOME}\data\typemap\osmNetconvert.typ.xml,${SUMO_HOME}\data\typemap\osmNetconvertUrbanDe.typ.xml,${SUMO_HOME}\data\typemap\osmNetconvertPedestrians.typ.xml,${SUMO_HOME}\data\typemap\osmNetconvertBicycle.typ.xml"/>
        <osm-files value="osm_bbox.osm.xml.gz"/>
    </input>

    <output>
        <output-file value="osm.net.xml.gz"/>
        <output.street-names value="true"/>
        <output.original-names value="true"/>
    </output>

    <projection>
        <proj.utm value="true"/>
    </projection>

    <processing>
        <geometry.remove value="true"/>
        <roundabouts.guess value="true"/>
        <lefthand value="true"/>
    </processing>

    <tls_building>
        <tls.discard-simple value="true"/>
        <tls.join value="true"/>
        <tls.guess-signals value="true"/>
        <tls.default-type value="actuated"/>
    </tls_building>

    <ramp_guessing>
        <ramps.guess value="true"/>
    </ramp_guessing>

    <junctions>
        <junctions.join value="true"/>
        <junctions.corner-detail value="5"/>
    </junctions>

    <pedestrian>
        <crossings.guess value="true"/>
    </pedestrian>

    <formats>
        <osm.bike-access value="true"/>
        <osm.sidewalks value="true"/>
    </formats>

</netconvertConfiguration>
-->

<net version="1.20" junctionCornerDetail="5" walkingareas="true" lefthand="true" limitTurnSpeed="5.50" xmlns:xsi="http://www.w3.org/2001/XMLSchema-instance" xsi:noNamespaceSchemaLocation="http://sumo.dlr.de/xsd/net_file.xsd">

    <location netOffset="-445510.84,-1748409.45" convBoundary="0.00,-0.00,1520.42,1018.52" origBoundary="74.491185,15.813859,74.505381,15.823053" projParameter="+proj=utm +zone=43 +ellps=WGS84 +datum=WGS84 +units=m +no_defs"/>

    <type id="highway.residential" priority="3" numLanes="1" speed="13.89" disallow="pedestrian tram rail_urban rail rail_electric rail_fast ship container cable_car subway aircraft wheelchair scooter drone" oneway="0" sidewalkWidth="2.00"/>
    <type id="highway.service" priority="1" numLanes="1" speed="5.56" allow="pedestrian delivery bicycle" oneway="0"/>
    <type id="highway.tertiary" priority="10" numLanes="1" speed="13.89" disallow="pedestrian tram rail_urban rail rail_electric rail_fast ship container cable_car subway aircraft wheelchair scooter drone" oneway="0" sidewalkWidth="3.00"/>
    <type id="highway.trunk" priority="13" numLanes="2" speed="13.89" disallow="pedestrian bicycle tram rail_urban rail rail_electric rail_fast ship container cable_car subway aircraft wheelchair scooter drone" oneway="0"/>
    <type id="highway.unclassified" priority="4" numLanes="1" speed="13.89" disallow="pedestrian tram rail_urban rail rail_electric rail_fast ship container cable_car subway aircraft wheelchair scooter drone" oneway="0" sidewalkWidth="2.00"/>
    <type id="railway.rail" priority="20" numLanes="1" speed="44.44" allow="rail" oneway="1"/>

    <edge id=":10304021767_0" function="internal">
        <lane id=":10304021767_0_0" index="0" disallow="tram rail_urban rail rail_electric rail_fast ship container cable_car subway aircraft wheelchair scooter drone" speed="13.89" length="9.40" shape="20.83,220.44 17.02,211.84"/>
        <lane id=":10304021767_0_1" index="1" disallow="tram rail_urban rail rail_electric rail_fast ship container cable_car subway aircraft wheelchair scooter drone" speed="13.89" length="9.40" shape="17.91,221.73 14.10,213.14"/>
        <lane id=":10304021767_0_2" index="2" disallow="tram rail_urban rail rail_electric rail_fast ship container cable_car subway aircraft wheelchair scooter drone" speed="13.89" length="9.40" shape="14.98,223.03 11.17,214.43"/>
        <lane id=":10304021767_0_3" index="3" disallow="tram rail_urban rail rail_electric rail_fast ship container cable_car subway aircraft wheelchair scooter drone" speed="13.89" length="9.40" shape="12.06,224.32 8.25,215.73"/>
    </edge>
    <edge id=":10304021767_4" function="internal">
        <lane id=":10304021767_4_0" index="0" disallow="pedestrian tram rail_urban rail rail_electric rail_fast ship container cable_car subway aircraft wheelchair scooter drone" speed="6.05" length="7.85" shape="12.06,224.32 10.75,221.87 9.39,220.32 7.99,219.68 6.54,219.94"/>
    </edge>
    <edge id=":10304021767_5" function="internal">
        <lane id=":10304021767_5_0" index="0" disallow="pedestrian tram rail_urban rail rail_electric rail_fast ship container cable_car subway aircraft wheelchair scooter drone" speed="6.95" length="10.17" shape="7.94,222.82 10.29,221.25 11.61,219.33 11.90,217.06 11.17,214.43"/>
        <lane id=":10304021767_5_1" index="1" disallow="pedestrian tram rail_urban rail rail_electric rail_fast ship container cable_car subway aircraft wheelchair scooter drone" speed="6.17" length="7.81" shape="7.94,222.82 9.02,221.86 9.43,220.36 9.18,218.31 8.25,215.73"/>
    </edge>
    <edge id=":10304021767_7" function="internal">
        <lane id=":10304021767_7_0" index="0" disallow="pedestrian tram rail_urban rail rail_electric rail_fast ship container cable_car subway aircraft wheelchair scooter drone" speed="3.65" length="4.67" shape="7.94,222.82 8.67,221.57 8.68,220.68 7.97,220.13 6.54,219.94"/>
    </edge>
    <edge id=":10304021767_w0" function="walkingarea">
        <lane id=":10304021767_w0_0" index="0" allow="pedestrian" speed="2.78" length="9.40" width="3.20" shape="6.78,216.37 9.71,215.08 12.64,213.78 15.56,212.49 18.49,211.19 22.30,219.79 19.37,221.08 16.44,222.38 13.52,223.68 10.59,224.97"/>
    </edge>
    <edge id=":11350974533_0" function="internal">
        <lane id=":11350974533_0_0" index="0" disallow="pedestrian tram rail_urban rail rail_electric rail_fast ship container cable_car subway aircraft wheelchair scooter drone" speed="3.65" length="4.67" shape="1387.92,911.63 1386.70,912.40 1386.28,913.19 1386.66,914.00 1387.84,914.83"/>
    </edge>
    <edge id=":2116160369_0" function="internal">
        <lane id=":2116160369_0_0" index="0" disallow="pedestrian tram rail_urban rail rail_electric rail_fast ship container cable_car subway aircraft wheelchair scooter drone" speed="6.79" length="9.37" shape="900.46,606.43 898.06,605.91 896.33,604.69 895.29,602.78 894.92,600.18"/>
    </edge>
    <edge id=":2116160369_1" function="internal">
        <lane id=":2116160369_1_0" index="0" disallow="pedestrian tram rail_urban rail rail_electric rail_fast ship container cable_car subway aircraft wheelchair scooter drone" speed="13.89" length="14.39" shape="900.46,606.43 886.09,605.63"/>
    </edge>
    <edge id=":2116160369_2" function="internal">
        <lane id=":2116160369_2_0" index="0" disallow="pedestrian tram rail_urban rail rail_electric rail_fast ship container cable_car subway aircraft wheelchair scooter drone" speed="3.65" length="1.44" shape="900.46,606.43 899.21,607.15"/>
    </edge>
    <edge id=":2116160369_9" function="internal">
        <lane id=":2116160369_9_0" index="0" disallow="pedestrian tram rail_urban rail rail_electric rail_fast ship container cable_car subway aircraft wheelchair scooter drone" speed="3.65" length="3.23" shape="899.21,607.15 898.76,607.92 899.11,608.75 900.26,609.62"/>
    </edge>
    <edge id=":2116160369_3" function="internal">
        <lane id=":2116160369_3_0" index="0" disallow="pedestrian tram rail_urban rail rail_electric rail_fast ship container cable_car subway aircraft wheelchair scooter drone" speed="13.89" length="14.35" shape="885.93,608.82 900.26,609.62"/>
    </edge>
    <edge id=":2116160369_4" function="internal">
        <lane id=":2116160369_4_0" index="0" disallow="pedestrian tram rail_urban rail rail_electric rail_fast ship container cable_car subway aircraft wheelchair scooter drone" speed="7.90" length="3.98" shape="885.93,608.82 889.90,608.45"/>
    </edge>
    <edge id=":2116160369_5" function="internal">
        <lane id=":2116160369_5_0" index="0" disallow="pedestrian tram rail_urban rail rail_electric rail_fast ship container cable_car subway aircraft wheelchair scooter drone" speed="3.65" length="1.44" shape="885.93,608.82 887.17,608.08"/>
    </edge>
    <edge id=":2116160369_10" function="internal">
        <lane id=":2116160369_10_0" index="0" disallow="pedestrian tram rail_urban rail rail_electric rail_fast ship container cable_car subway aircraft wheelchair scooter drone" speed="7.90" length="10.44" shape="889.90,608.45 892.72,606.88 894.39,604.13 894.92,600.18"/>
    </edge>
    <edge id=":2116160369_11" function="internal">
        <lane id=":2116160369_11_0" index="0" disallow="pedestrian tram rail_urban rail rail_electric rail_fast ship container cable_car subway aircraft wheelchair scooter drone" speed="3.65" length="3.23" shape="887.17,608.08 887.61,607.30 887.25,606.48 886.09,605.63"/>
    </edge>
    <edge id=":2116160369_6" function="internal">
        <lane id=":2116160369_6_0" index="0" disallow="pedestrian tram rail_urban rail rail_electric rail_fast ship container cable_car subway aircraft wheelchair scooter drone" speed="6.38" length="9.04" shape="891.72,600.21 891.39,602.68 890.34,604.41 888.57,605.39 886.09,605.63"/>
    </edge>
    <edge id=":2116160369_7" function="internal">
        <lane id=":2116160369_7_0" index="0" disallow="pedestrian tram rail_urban rail rail_electric rail_fast ship container cable_car subway aircraft wheelchair scooter drone" speed="8.24" length="14.27" shape="891.72,600.21 892.29,604.13 893.90,607.00 896.56,608.83 900.26,609.62"/>
    </edge>
    <edge id=":2116160369_8" function="internal">
        <lane id=":2116160369_8_0" index="0" disallow="pedestrian tram rail_urban rail rail_electric rail_fast ship container cable_car subway aircraft wheelchair scooter drone" speed="3.65" length="4.67" shape="891.72,600.21 892.53,601.40 893.34,601.79 894.13,601.39 894.92,600.18"/>
    </edge>
    <edge id=":2116160522_0" function="internal">
        <lane id=":2116160522_0_0" index="0" disallow="pedestrian tram rail_urban rail rail_electric rail_fast ship container cable_car subway aircraft wheelchair scooter drone" speed="3.65" length="4.67" shape="1311.53,1001.74 1312.58,1002.73 1313.45,1002.94 1314.14,1002.37 1314.65,1001.02"/>
    </edge>
    <edge id=":2117582376_0" function="internal">
        <lane id=":2117582376_0_0" index="0" allow="delivery bicycle" speed="3.90" length="2.58" shape="65.32,556.20 64.70,556.53 64.11,556.58 63.58,556.35 63.08,555.85"/>
    </edge>
    <edge id=":2117582376_1" function="internal">
        <lane id=":2117582376_1_0" index="0" disallow="pedestrian tram rail_urban rail rail_electric rail_fast ship container cable_car subway aircraft wheelchair scooter drone" speed="3.65" length="4.67" shape="65.32,556.20 64.82,557.55 64.97,558.43 65.76,558.85 67.21,558.79"/>
    </edge>
    <edge id=":2117582376_2" function="internal">
        <lane id=":2117582376_2_0" index="0" allow="delivery bicycle" speed="6.08" length="7.75" shape="60.49,557.73 61.97,559.25 63.58,559.94 65.33,559.78 67.21,558.79"/>
    </edge>
    <edge id=":2117582376_3" function="internal">
        <lane id=":2117582376_3_0" index="0" allow="pedestrian delivery bicycle" speed="3.65" length="4.67" shape="60.49,557.73 61.85,558.23 62.73,558.08 63.14,557.29 63.08,555.85"/>
    </edge>
    <edge id=":2117582376_w0" function="walkingarea">
        <lane id=":2117582376_w0_0" index="0" allow="pedestrian" speed="2.78" length="3.20" width="3.20" shape="59.20,558.67 61.79,556.79 64.38,554.91"/>
    </edge>
    <edge id=":2117582397_0" function="internal">
        <lane id=":2117582397_0_0" index="0" disallow="pedestrian tram rail_urban rail rail_electric rail_fast ship container cable_car subway aircraft wheelchair scooter drone" speed="7.06" length="9.66" shape="296.16,739.85 298.76,738.90 301.05,738.86 303.04,739.72 304.73,741.48"/>
    </edge>
    <edge id=":2117582397_1" function="internal">
        <lane id=":2117582397_1_0" index="0" disallow="pedestrian tram rail_urban rail rail_electric rail_fast ship container cable_car subway aircraft wheelchair scooter drone" speed="3.65" length="4.67" shape="296.16,739.85 296.87,738.59 296.87,737.70 296.15,737.16 294.71,736.99"/>
    </edge>
    <edge id=":2117582397_2" function="internal">
        <lane id=":2117582397_2_0" index="0" disallow="pedestrian tram rail_urban rail rail_electric rail_fast ship container cable_car subway aircraft wheelchair scooter drone" speed="6.30" length="9.04" shape="296.74,729.53 297.78,731.81 297.79,733.82 296.77,735.55 294.71,736.99"/>
    </edge>
    <edge id=":2117582397_3" function="internal">
        <lane id=":2117582397_3_0" index="0" disallow="tram rail_urban rail rail_electric rail_fast ship container cable_car subway aircraft wheelchair scooter drone" speed="13.89" length="14.31" shape="296.74,729.53 304.73,741.48"/>
        <lane id=":2117582397_3_1" index="1" disallow="tram rail_urban rail rail_electric rail_fast ship container cable_car subway aircraft wheelchair scooter drone" speed="13.89" length="14.31" shape="299.44,727.80 307.36,739.65"/>
    </edge>
    <edge id=":2117582397_w0" function="walkingarea">
        <lane id=":2117582397_w0_0" index="0" allow="pedestrian" speed="2.78" length="14.38" width="3.20" shape="295.40,730.39 298.09,728.66 300.78,726.93 308.67,738.73 306.05,740.56 303.42,742.40"/>
    </edge>
    <edge id=":2117582410_0" function="internal">
        <lane id=":2117582410_0_0" index="0" allow="delivery bicycle" speed="5.33" length="5.15" shape="118.03,517.58 116.80,518.04 115.64,517.99 114.56,517.43 113.55,516.37"/>
    </edge>
    <edge id=":2117582410_1" function="internal">
        <lane id=":2117582410_1_0" index="0" disallow="pedestrian tram rail_urban rail rail_electric rail_fast ship container cable_car subway aircraft wheelchair scooter drone" speed="13.89" length="9.20" shape="118.03,517.58 115.65,518.92 114.06,519.90 112.53,520.97 110.34,522.61"/>
    </edge>
    <edge id=":2117582410_2" function="internal">
        <lane id=":2117582410_2_0" index="0" disallow="pedestrian tram rail_urban rail rail_electric rail_fast ship container cable_car subway aircraft wheelchair scooter drone" speed="13.89" length="8.76" shape="112.26,525.17 114.34,523.61 115.80,522.59 117.32,521.66 119.59,520.38"/>
    </edge>
    <edge id=":2117582410_3" function="internal">
        <lane id=":2117582410_3_0" index="0" allow="delivery bicycle" speed="6.87" length="3.23" shape="112.26,525.17 114.22,523.21 114.39,522.78"/>
    </edge>
    <edge id=":2117582410_7" function="internal">
        <lane id=":2117582410_7_0" index="0" allow="delivery bicycle" speed="6.87" length="6.89" shape="114.39,522.78 115.09,521.09 114.87,518.81 113.55,516.37"/>
    </edge>
    <edge id=":2117582410_4" function="internal">
        <lane id=":2117582410_4_0" index="0" allow="delivery bicycle" speed="5.05" length="4.99" shape="110.98,518.27 111.62,519.47 111.73,520.60 111.31,521.64 110.34,522.61"/>
    </edge>
    <edge id=":2117582410_5" function="internal">
        <lane id=":2117582410_5_0" index="0" allow="delivery bicycle" speed="7.09" length="9.85" shape="110.98,518.27 112.87,520.24 114.93,521.24 117.17,521.29 119.59,520.38"/>
    </edge>
    <edge id=":2117582410_6" function="internal">
        <lane id=":2117582410_6_0" index="0" allow="pedestrian delivery bicycle" speed="3.65" length="4.67" shape="110.98,518.27 112.33,518.76 113.21,518.61 113.62,517.81 113.55,516.37"/>
    </edge>
    <edge id=":2117582410_w0" function="walkingarea">
        <lane id=":2117582410_w0_0" index="0" allow="pedestrian" speed="2.78" length="3.20" width="3.20" shape="109.69,519.22 112.27,517.32 114.84,515.42 115.50,517.17 114.22,517.91 113.19,518.56 112.18,519.25 110.98,520.12"/>
    </edge>
    <edge id=":2117582416_0" function="internal">
        <lane id=":2117582416_0_0" index="0" disallow="pedestrian tram rail_urban rail rail_electric rail_fast ship container cable_car subway aircraft wheelchair scooter drone" speed="6.63" length="9.62" shape="196.31,924.07 193.74,925.17 191.52,925.25 189.64,924.32 188.10,922.36"/>
    </edge>
    <edge id=":2117582416_1" function="internal">
        <lane id=":2117582416_1_0" index="0" disallow="pedestrian tram rail_urban rail rail_electric rail_fast ship container cable_car subway aircraft wheelchair scooter drone" speed="13.89" length="15.10" shape="196.31,924.07 183.36,931.82"/>
    </edge>
    <edge id=":2117582416_2" function="internal">
        <lane id=":2117582416_2_0" index="0" disallow="pedestrian tram rail_urban rail rail_electric rail_fast ship container cable_car subway aircraft wheelchair scooter drone" speed="7.66" length="4.28" shape="196.31,924.07 192.97,926.74"/>
    </edge>
    <edge id=":2117582416_3" function="internal">
        <lane id=":2117582416_3_0" index="0" disallow="pedestrian tram rail_urban rail rail_electric rail_fast ship container cable_car subway aircraft wheelchair scooter drone" speed="3.65" length="1.44" shape="196.31,924.07 195.68,925.36"/>
    </edge>
    <edge id=":2117582416_16" function="internal">
        <lane id=":2117582416_16_0" index="0" disallow="pedestrian tram rail_urban rail rail_electric rail_fast ship container cable_car subway aircraft wheelchair scooter drone" speed="7.66" length="10.83" shape="192.97,926.74 191.56,929.70 192.09,932.93 194.55,936.43"/>
    </edge>
    <edge id=":2117582416_17" function="internal">
        <lane id=":2117582416_17_0" index="0" disallow="pedestrian tram rail_urban rail rail_electric rail_fast ship container cable_car subway aircraft wheelchair scooter drone" speed="3.65" length="3.23" shape="195.68,925.36 195.74,926.26 196.50,926.74 197.94,926.82"/>
    </edge>
    <edge id=":2117582416_4" function="internal">
        <lane id=":2117582416_4_0" index="0" disallow="pedestrian tram rail_urban rail rail_electric rail_fast ship container cable_car subway aircraft wheelchair scooter drone" speed="6.08" length="9.06" shape="196.88,934.24 195.40,932.14 195.09,930.20 195.93,928.43 197.94,926.82"/>
    </edge>
    <edge id=":2117582416_5" function="internal">
        <lane id=":2117582416_5_0" index="0" disallow="pedestrian tram rail_urban rail rail_electric rail_fast ship container cable_car subway aircraft wheelchair scooter drone" speed="13.89" length="14.81" shape="196.88,934.24 194.40,931.46 192.11,928.57 190.01,925.55 188.10,922.36"/>
    </edge>
    <edge id=":2117582416_6" function="internal">
        <lane id=":2117582416_6_0" index="0" disallow="pedestrian tram rail_urban rail rail_electric rail_fast ship container cable_car subway aircraft wheelchair scooter drone" speed="8.92" length="15.04" shape="196.88,934.24 193.64,931.55 190.31,930.25 186.88,930.34 183.36,931.82"/>
    </edge>
    <edge id=":2117582416_7" function="internal">
        <lane id=":2117582416_7_0" index="0" disallow="pedestrian tram rail_urban rail rail_electric rail_fast ship container cable_car subway aircraft wheelchair scooter drone" speed="3.65" length="4.67" shape="196.88,934.24 195.47,933.92 194.62,934.17 194.31,935.01 194.55,936.43"/>
    </edge>
    <edge id=":2117582416_8" function="internal">
        <lane id=":2117582416_8_0" index="0" disallow="pedestrian tram rail_urban rail rail_electric rail_fast ship container cable_car subway aircraft wheelchair scooter drone" speed="7.58" length="10.63" shape="185.02,934.55 187.46,933.54 189.87,933.52 192.23,934.49 194.55,936.43"/>
    </edge>
    <edge id=":2117582416_9" function="internal">
        <lane id=":2117582416_9_0" index="0" disallow="pedestrian tram rail_urban rail rail_electric rail_fast ship container cable_car subway aircraft wheelchair scooter drone" speed="13.89" length="15.05" shape="185.02,934.55 197.94,926.82"/>
    </edge>
    <edge id=":2117582416_10" function="internal">
        <lane id=":2117582416_10_0" index="0" disallow="pedestrian tram rail_urban rail rail_electric rail_fast ship container cable_car subway aircraft wheelchair scooter drone" speed="8.13" length="3.95" shape="185.02,934.55 187.97,932.11 188.03,932.00"/>
    </edge>
    <edge id=":2117582416_11" function="internal">
        <lane id=":2117582416_11_0" index="0" disallow="pedestrian tram rail_urban rail rail_electric rail_fast ship container cable_car subway aircraft wheelchair scooter drone" speed="3.65" length="1.44" shape="185.02,934.55 185.63,933.24"/>
    </edge>
    <edge id=":2117582416_18" function="internal">
        <lane id=":2117582416_18_0" index="0" disallow="pedestrian tram rail_urban rail rail_electric rail_fast ship container cable_car subway aircraft wheelchair scooter drone" speed="8.13" length="10.26" shape="188.03,932.00 189.46,929.27 189.51,926.01 188.10,922.36"/>
    </edge>
    <edge id=":2117582416_19" function="internal">
        <lane id=":2117582416_19_0" index="0" disallow="pedestrian tram rail_urban rail rail_electric rail_fast ship container cable_car subway aircraft wheelchair scooter drone" speed="3.65" length="3.23" shape="185.63,933.24 185.55,932.35 184.80,931.88 183.36,931.82"/>
    </edge>
    <edge id=":2117582416_12" function="internal">
        <lane id=":2117582416_12_0" index="0" disallow="pedestrian tram rail_urban rail rail_electric rail_fast ship container cable_car subway aircraft wheelchair scooter drone" speed="6.66" length="9.21" shape="185.30,923.91 186.22,926.29 186.20,928.40 185.25,930.24 183.36,931.82"/>
    </edge>
    <edge id=":2117582416_13" function="internal">
        <lane id=":2117582416_13_0" index="0" disallow="pedestrian tram rail_urban rail rail_electric rail_fast ship container cable_car subway aircraft wheelchair scooter drone" speed="13.89" length="15.61" shape="185.30,923.91 187.28,927.20 189.55,930.45 192.00,933.56 194.55,936.43"/>
    </edge>
    <edge id=":2117582416_14" function="internal">
        <lane id=":2117582416_14_0" index="0" disallow="pedestrian tram rail_urban rail rail_electric rail_fast ship container cable_car subway aircraft wheelchair scooter drone" speed="8.10" length="14.88" shape="185.30,923.91 187.71,927.02 190.62,928.54 194.03,928.48 197.94,926.82"/>
    </edge>
    <edge id=":2117582416_15" function="internal">
        <lane id=":2117582416_15_0" index="0" disallow="pedestrian tram rail_urban rail rail_electric rail_fast ship container cable_car subway aircraft wheelchair scooter drone" speed="3.65" length="4.67" shape="185.30,923.91 186.58,924.57 187.47,924.53 187.98,923.79 188.10,922.36"/>
    </edge>
    <edge id=":2117582421_0" function="internal">
        <lane id=":2117582421_0_0" index="0" allow="pedestrian delivery bicycle" speed="5.56" length="8.91" shape="102.62,497.01 100.58,498.70 99.16,499.82 97.69,500.87 95.50,502.35"/>
    </edge>
    <edge id=":2117582421_1" function="internal">
        <lane id=":2117582421_1_0" index="0" allow="pedestrian delivery bicycle" speed="5.56" length="10.03" shape="102.62,497.01 100.78,499.04 100.02,501.19 100.32,503.44 101.70,505.81"/>
    </edge>
    <edge id=":2117582421_2" function="internal">
        <lane id=":2117582421_2_0" index="0" allow="pedestrian delivery bicycle" speed="3.65" length="4.67" shape="102.62,497.01 102.21,498.39 102.41,499.27 103.23,499.63 104.67,499.47"/>
    </edge>
    <edge id=":2117582421_3" function="internal">
        <lane id=":2117582421_3_0" index="0" allow="pedestrian delivery bicycle" speed="5.07" length="4.97" shape="104.21,503.83 103.53,502.66 103.38,501.54 103.76,500.48 104.67,499.47"/>
    </edge>
    <edge id=":2117582421_4" function="internal">
        <lane id=":2117582421_4_0" index="0" allow="pedestrian delivery bicycle" speed="5.56" length="9.92" shape="104.21,503.83 102.25,501.94 100.14,501.07 97.89,501.20 95.50,502.35"/>
    </edge>
    <edge id=":2117582421_5" function="internal">
        <lane id=":2117582421_5_0" index="0" allow="pedestrian delivery bicycle" speed="3.65" length="4.67" shape="104.21,503.83 102.84,503.38 101.96,503.57 101.58,504.38 101.70,505.81"/>
    </edge>
    <edge id=":2117582421_6" function="internal">
        <lane id=":2117582421_6_0" index="0" allow="pedestrian delivery bicycle" speed="5.19" length="5.04" shape="97.28,505.01 98.48,504.44 99.62,504.38 100.69,504.84 101.70,505.81"/>
    </edge>
    <edge id=":2117582421_7" function="internal">
        <lane id=":2117582421_7_0" index="0" allow="pedestrian delivery bicycle" speed="5.56" length="9.24" shape="97.28,505.01 99.55,503.47 101.08,502.38 102.55,501.22 104.67,499.47"/>
    </edge>
    <edge id=":2117582421_8" function="internal">
        <lane id=":2117582421_8_0" index="0" allow="pedestrian delivery bicycle" speed="3.65" length="4.67" shape="97.28,505.01 97.83,503.68 97.72,502.79 96.94,502.35 95.50,502.35"/>
    </edge>
    <edge id=":2117582421_w0" function="walkingarea">
        <lane id=":2117582421_w0_0" index="0" allow="pedestrian" speed="2.78" length="6.78" width="6.40" shape="101.60,495.78 105.69,500.70 105.15,501.37 105.06,501.72 105.08,502.08 105.21,502.45 105.47,502.84 100.44,506.80 99.73,506.17 99.36,506.04 98.98,506.02 98.58,506.12 98.17,506.34 94.60,501.02 97.28,499.20 98.20,498.54 99.10,497.84 100.17,496.97"/>
    </edge>
    <edge id=":2117582467_0" function="internal">
        <lane id=":2117582467_0_0" index="0" allow="pedestrian delivery bicycle" speed="3.65" length="4.67" shape="308.17,970.50 308.53,969.11 308.29,968.24 307.46,967.92 306.03,968.12"/>
    </edge>
    <edge id=":2117582499_0" function="internal">
        <lane id=":2117582499_0_0" index="0" disallow="pedestrian tram rail_urban rail rail_electric rail_fast ship container cable_car subway aircraft wheelchair scooter drone" speed="6.29" length="9.04" shape="140.72,824.66 138.42,825.69 136.42,825.68 134.70,824.64 133.28,822.57"/>
    </edge>
    <edge id=":2117582499_1" function="internal">
        <lane id=":2117582499_1_0" index="0" disallow="pedestrian tram rail_urban rail rail_electric rail_fast ship container cable_car subway aircraft wheelchair scooter drone" speed="8.24" length="14.42" shape="140.72,824.66 137.62,827.25 136.00,830.16 135.86,833.40 137.19,836.97"/>
    </edge>
    <edge id=":2117582499_2" function="internal">
        <lane id=":2117582499_2_0" index="0" disallow="pedestrian tram rail_urban rail rail_electric rail_fast ship container cable_car subway aircraft wheelchair scooter drone" speed="3.65" length="4.67" shape="140.72,824.66 140.13,825.98 140.22,826.87 140.99,827.33 142.43,827.36"/>
    </edge>
    <edge id=":2117582499_3" function="internal">
        <lane id=":2117582499_3_0" index="0" disallow="pedestrian tram rail_urban rail rail_electric rail_fast ship container cable_car subway aircraft wheelchair scooter drone" speed="6.79" length="9.47" shape="139.99,835.42 139.14,833.11 139.26,830.99 140.36,829.08 142.43,827.36"/>
    </edge>
    <edge id=":2117582499_4" function="internal">
        <lane id=":2117582499_4_0" index="0" disallow="pedestrian tram rail_urban rail rail_electric rail_fast ship container cable_car subway aircraft wheelchair scooter drone" speed="13.89" length="14.50" shape="139.99,835.42 133.28,822.57"/>
    </edge>
    <edge id=":2117582499_5" function="internal">
        <lane id=":2117582499_5_0" index="0" disallow="pedestrian tram rail_urban rail rail_electric rail_fast ship container cable_car subway aircraft wheelchair scooter drone" speed="3.65" length="1.44" shape="139.99,835.42 138.70,834.75"/>
    </edge>
    <edge id=":2117582499_9" function="internal">
        <lane id=":2117582499_9_0" index="0" disallow="pedestrian tram rail_urban rail rail_electric rail_fast ship container cable_car subway aircraft wheelchair scooter drone" speed="3.65" length="3.23" shape="138.70,834.75 137.81,834.79 137.30,835.53 137.19,836.97"/>
    </edge>
    <edge id=":2117582499_6" function="internal">
        <lane id=":2117582499_6_0" index="0" disallow="pedestrian tram rail_urban rail rail_electric rail_fast ship container cable_car subway aircraft wheelchair scooter drone" speed="13.89" length="14.64" shape="130.41,823.99 137.19,836.97"/>
    </edge>
    <edge id=":2117582499_7" function="internal">
        <lane id=":2117582499_7_0" index="0" disallow="pedestrian tram rail_urban rail rail_electric rail_fast ship container cable_car subway aircraft wheelchair scooter drone" speed="7.82" length="4.33" shape="130.41,823.99 132.71,827.34 132.94,827.47"/>
    </edge>
    <edge id=":2117582499_8" function="internal">
        <lane id=":2117582499_8_0" index="0" disallow="pedestrian tram rail_urban rail rail_electric rail_fast ship container cable_car subway aircraft wheelchair scooter drone" speed="3.65" length="1.44" shape="130.41,823.99 131.66,824.71"/>
    </edge>
    <edge id=":2117582499_10" function="internal">
        <lane id=":2117582499_10_0" index="0" disallow="pedestrian tram rail_urban rail rail_electric rail_fast ship container cable_car subway aircraft wheelchair scooter drone" speed="7.82" length="10.28" shape="132.94,827.47 135.48,829.02 138.72,829.02 142.43,827.36"/>
    </edge>
    <edge id=":2117582499_11" function="internal">
        <lane id=":2117582499_11_0" index="0" disallow="pedestrian tram rail_urban rail rail_electric rail_fast ship container cable_car subway aircraft wheelchair scooter drone" speed="3.65" length="3.23" shape="131.66,824.71 132.55,824.71 133.09,824.00 133.28,822.57"/>
    </edge>
    <edge id=":2117582534_0" function="internal">
        <lane id=":2117582534_0_0" index="0" allow="pedestrian delivery bicycle" speed="4.99" length="5.06" shape="50.78,533.49 49.58,534.20 48.45,534.34 47.41,533.91 46.43,532.91"/>
    </edge>
    <edge id=":2117582534_1" function="internal">
        <lane id=":2117582534_1_0" index="0" allow="pedestrian delivery bicycle" speed="5.56" length="10.18" shape="50.78,533.49 48.83,535.55 47.94,537.72 48.12,540.00 49.37,542.40"/>
    </edge>